ver_1.2
     RDKit          3D

 24 26  0  0  0  0  0  0  0  0999 V2000
   -3.7689    3.0958    1.0864 C   0  0  0  0  0  0  0  0  0  0  0  0
   -3.4748    1.8805    0.4291 O   0  0  0  0  0  0  0  0  0  0  0  0
   -2.2032    1.4723    0.0956 C   0  0  0  0  0  0  0  0  0  0  0  0
   -1.2510    2.2365    0.3998 O   0  0  0  0  0  0  0  0  0  0  0  0
   -1.8709    0.2100   -0.5900 C   0  0  0  0  0  0  0  0  0  0  0  0
   -2.4710   -1.0081    0.0226 C   0  0  0  0  0  0  0  0  0  0  0  0
   -3.9465   -0.8951    0.0112 C   0  0  0  0  0  0  0  0  0  0  0  0
   -4.7425   -1.3420   -1.0359 C   0  0  0  0  0  0  0  0  0  0  0  0
   -6.0617   -1.0617   -0.6787 C   0  0  0  0  0  0  0  0  0  0  0  0
   -6.0376   -0.4730    0.5317 N   0  0  0  0  0  0  0  0  0  0  0  0
   -4.7919   -0.3846    0.9182 N   0  0  0  0  0  0  0  0  0  0  0  0
   -0.4437    0.0898   -0.7984 N   0  0  0  0  0  0  0  0  0  0  0  0
    0.4315   -0.5166    0.1389 C   0  0  0  0  0  0  0  0  0  0  0  0
   -0.0510   -0.9746    1.2065 O   0  0  0  0  0  0  0  0  0  0  0  0
    1.8705   -0.5709   -0.2050 C   0  0  0  0  0  0  0  0  0  0  0  0
    2.4290    0.7876   -0.5390 C   0  0  0  0  0  0  0  0  0  0  0  0
    3.8747    0.6297   -0.8446 C   0  0  0  0  0  0  0  0  0  0  0  0
    4.6545    1.3973   -1.6221 N   0  0  0  0  0  0  0  0  0  0  0  0
    5.8744    0.9088   -1.6243 N   0  0  0  0  0  0  0  0  0  0  0  0
    5.9070   -0.1824   -0.8495 C   0  0  0  0  0  0  0  0  0  0  0  0
    4.6489   -0.3922   -0.3344 C   0  0  0  0  0  0  0  0  0  0  0  0
    4.0376   -1.3781    0.5510 C   0  0  0  0  0  0  0  0  0  0  0  0
    4.7340   -2.3156    1.0231 O   0  0  0  0  0  0  0  0  0  0  0  0
    2.6526   -1.2134    0.8334 N   0  0  0  0  0  0  0  0  0  0  0  0
  1  2  1  0
  2  3  1  0
  3  4  2  0
  3  5  1  0
  5  6  1  0
  6  7  1  0
  7  8  1  0
  8  9  2  0
  9 10  1  0
 10 11  1  0
  5 12  1  0
 12 13  1  0
 13 14  2  0
 13 15  1  0
 15 16  1  0
 16 17  1  0
 17 18  1  0
 18 19  1  0
 19 20  2  0
 20 21  1  0
 21 22  1  0
 22 23  2  0
 22 24  1  0
 11  7  2  0
 24 15  1  0
 21 17  2  0
M  END
>  <ref_url>  (1) 
https://hippo.winokan.com

>  <submitter_name>  (1) 
Max Winokan

>  <submitter_email>  (1) 
max.winokan@diamond.ac.uk

>  <submitter_institution>  (1) 
DLS

>  <generation_date>  (1) 
2025-11-14

>  <method>  (1) 
openbind_d68ev3c_c1_elab_chemspace_filtered

>  <HIPPO Pose ID>  (1) 
HIPPO Pose ID

>  <HIPPO Compound ID>  (1) 
HIPPO Compound ID

>  <smiles>  (1) 
smiles

>  <ref_pdb>  (1) 
protein reference

>  <ref_mols>  (1) 
fragment inspirations

>  <alias>  (1) 
alias

>  <distance_score>  (1) 
distance_score

>  <energy_score>  (1) 
energy_score

>  <inspiration_score>  (1) 
inspiration_score

$$$$
P6018
     RDKit          3D

 22 24  0  0  0  0  0  0  0  0999 V2000
    4.9465   -3.4959   11.8669 O   0  0  0  0  0  0  0  0  0  0  0  0
    5.1779   -2.3442   11.6681 C   0  0  0  0  0  0  0  0  0  0  0  0
    6.5411   -1.7057   12.6245 C   0  0  0  0  0  0  0  0  0  0  0  0
    7.2182   -2.2041   14.1752 C   0  0  0  0  0  0  0  0  0  0  0  0
    8.4318   -1.5173   15.0508 C   0  0  0  0  0  0  0  0  0  0  0  0
    8.2265   -0.7564   16.1993 C   0  0  0  0  0  0  0  0  0  0  0  0
    9.3756   -0.0898   16.5086 N   0  0  0  0  0  0  0  0  0  0  0  0
   10.4344   -0.7925   16.0129 C   0  0  0  0  0  0  0  0  0  0  0  0
   11.8001   -0.6553   16.3031 C   0  0  0  0  0  0  0  0  0  0  0  0
   12.6887   -1.5671   15.7428 C   0  0  0  0  0  0  0  0  0  0  0  0
   12.2204   -2.5659   14.9106 C   0  0  0  0  0  0  0  0  0  0  0  0
   10.8531   -2.6550   14.6123 C   0  0  0  0  0  0  0  0  0  0  0  0
    9.8980   -1.7493   15.1411 C   0  0  0  0  0  0  0  0  0  0  0  0
    4.5050   -1.3798   10.7984 N   0  0  0  0  0  0  0  0  0  0  0  0
    3.3874   -1.5604    9.8173 C   0  0  0  0  0  0  0  0  0  0  0  0
    1.8190   -0.9622    9.4937 C   0  0  0  0  0  0  0  0  0  0  0  0
    0.1201   -1.0664    9.6731 N   0  0  0  0  0  0  0  0  0  0  0  0
   -1.3538   -1.2485    8.4414 C   0  0  0  0  0  0  0  0  0  0  0  0
   -2.4408   -0.4231    8.6019 C   0  0  0  0  0  0  0  0  0  0  0  0
   -3.8236   -0.2782    7.6418 Cl  0  0  0  0  0  0  0  0  0  0  0  0
   -2.0685   -1.3273    9.4939 C   0  0  0  0  0  0  0  0  0  0  0  0
   -0.7521   -1.0941   10.7345 N   0  0  0  0  0  0  0  0  0  0  0  0
  1  2  2  0
  2  3  1  0
  3  4  1  0
  4  5  1  0
  5  6  2  0
  6  7  1  0
  7  8  1  0
  8  9  2  0
  9 10  1  0
 10 11  2  0
 11 12  1  0
 12 13  2  0
  2 14  1  0
 14 15  1  0
 15 16  1  0
 16 17  1  0
 17 18  1  0
 18 19  2  0
 19 20  1  0
 19 21  1  0
 21 22  2  0
 13  5  1  0
 22 17  1  0
 13  8  1  0
M  END
>  <name>  (1) 
P6018

>  <HIPPO Compound ID>  (1) 
33797

>  <energy_score>  (1) 
492.245977

>  <HIPPO Pose ID>  (1) 
6018

>  <inspiration_score>  (1) 
None

>  <ref_pdb>  (1) 
7go4-b

>  <inchikey>  (1) 
IGFSVBYQUJOBES-UHFFFAOYSA-N

>  <alias>  (1) 
None

>  <distance_score>  (1) 
9.278592

>  <ref_mols>  (1) 
7go7-a,B0426a

>  <smiles>  (1) 
O=C(CCc1c[nH]c2ccccc12)NCCn1cc(Cl)cn1

$$$$
P24064
     RDKit          3D

 22 24  0  0  0  0  0  0  0  0999 V2000
   -7.6555  -18.3934   33.1637 N   0  0  0  0  0  0  0  0  0  0  0  0
   -7.5172  -17.5977   31.8509 C   0  0  1  0  0  0  0  0  0  0  0  0
   -7.5464  -18.7289   30.0544 C   0  0  0  0  0  0  0  0  0  0  0  0
   -8.6614  -19.7028   28.5590 C   0  0  0  0  0  0  0  0  0  0  0  0
   -8.0854  -21.3671   27.7515 C   0  0  0  0  0  0  0  0  0  0  0  0
   -9.2668  -22.4762   28.1367 C   0  0  0  0  0  0  0  0  0  0  0  0
  -10.4476  -21.6899   28.3899 N   0  0  0  0  0  0  0  0  0  0  0  0
  -10.1996  -20.4191   29.1620 N   0  0  0  0  0  0  0  0  0  0  0  0
   -7.9715  -15.4217   32.1825 C   0  0  0  0  0  0  0  0  0  0  0  0
   -9.0623  -15.1913   32.7414 O   0  0  0  0  0  0  0  0  0  0  0  0
   -6.6610  -14.0871   31.8005 N   0  0  0  0  0  0  0  0  0  0  0  0
   -6.5780  -12.1770   32.3122 C   0  0  0  0  0  0  0  0  0  0  0  0
   -5.8199  -10.7224   33.6252 C   0  0  0  0  0  0  0  0  0  0  0  0
   -4.4481   -9.3610   34.2406 C   0  0  0  0  0  0  0  0  0  0  0  0
   -4.0568   -9.5253   35.5889 C   0  0  0  0  0  0  0  0  0  0  0  0
   -2.7536   -9.2555   36.0553 C   0  0  0  0  0  0  0  0  0  0  0  0
   -1.8469   -8.3386   35.4762 C   0  0  0  0  0  0  0  0  0  0  0  0
   -2.0326   -8.1433   34.1210 C   0  0  0  0  0  0  0  0  0  0  0  0
   -1.1726   -7.5876   33.1263 C   0  0  0  0  0  0  0  0  0  0  0  0
   -1.7056   -7.9150   31.9125 C   0  0  0  0  0  0  0  0  0  0  0  0
   -2.8511   -8.6207   32.1614 N   0  0  0  0  0  0  0  0  0  0  0  0
   -3.1321   -8.8188   33.5257 C   0  0  0  0  0  0  0  0  0  0  0  0
  2  1  1  1
  2  3  1  0
  3  4  1  0
  4  5  1  0
  5  6  2  0
  6  7  1  0
  7  8  1  0
  2  9  1  0
  9 10  2  0
  9 11  1  0
 11 12  1  0
 12 13  1  0
 13 14  1  0
 14 15  2  0
 15 16  1  0
 16 17  2  0
 17 18  1  0
 18 19  1  0
 19 20  2  0
 20 21  1  0
 21 22  1  0
  8  4  2  0
 22 14  1  0
 22 18  2  0
M  END
>  <name>  (2) 
P24064

>  <HIPPO Compound ID>  (2) 
30265

>  <energy_score>  (2) 
1055.40911

>  <HIPPO Pose ID>  (2) 
24064

>  <inspiration_score>  (2) 
None

>  <ref_pdb>  (2) 
7gq5-b

>  <inchikey>  (2) 
WGWCVZXHQCSGIO-UHFFFAOYSA-N

>  <alias>  (2) 
None

>  <distance_score>  (2) 
6.189318

>  <ref_mols>  (2) 
7gok-a,7gqj-a

>  <smiles>  (2) 
N[C@@H](Cc1cc[nH]n1)C(=O)NCCc1cccc2cc[nH]c12

$$$$
P42759
     RDKit          3D

 21 24  0  0  0  0  0  0  0  0999 V2000
  -10.4523  -27.5769   30.5781 C   0  0  0  0  0  0  0  0  0  0  0  0
  -10.9648  -28.0290   29.3811 C   0  0  0  0  0  0  0  0  0  0  0  0
  -12.0519  -28.8281   29.6903 N   0  0  0  0  0  0  0  0  0  0  0  0
  -12.7463  -29.7698   28.8080 C   0  0  0  0  0  0  0  0  0  0  0  0
  -13.6994  -30.7034   29.1688 C   0  0  0  0  0  0  0  0  0  0  0  0
  -13.8700  -31.9898   27.9934 S   0  0  0  0  0  0  0  0  0  0  0  0
  -12.6392  -31.3508   26.9754 C   0  0  0  0  0  0  0  0  0  0  0  0
  -11.7811  -32.2586   25.9465 C   0  0  0  0  0  0  0  0  0  0  0  0
  -12.3440  -33.2391   24.9793 N   0  0  0  0  0  0  0  0  0  0  0  0
  -11.3801  -34.2448   24.5982 C   0  0  0  0  0  0  0  0  0  0  0  0
  -11.2510  -35.3634   25.4818 C   0  0  0  0  0  0  0  0  0  0  0  0
  -10.3198  -36.4170   25.3237 C   0  0  0  0  0  0  0  0  0  0  0  0
   -9.4536  -36.2991   24.2178 C   0  0  0  0  0  0  0  0  0  0  0  0
   -8.4595  -37.1342   23.8907 N   0  0  0  0  0  0  0  0  0  0  0  0
   -7.6732  -36.5800   22.5443 S   0  0  0  0  0  0  0  0  0  0  0  0
   -8.6405  -35.1824   22.3162 C   0  0  0  0  0  0  0  0  0  0  0  0
   -9.5867  -35.1463   23.3162 C   0  0  0  0  0  0  0  0  0  0  0  0
  -10.5299  -34.0997   23.4654 C   0  0  0  0  0  0  0  0  0  0  0  0
  -12.3649  -30.0335   27.4387 C   0  0  0  0  0  0  0  0  0  0  0  0
  -12.1889  -28.6974   31.0622 C   0  0  0  0  0  0  0  0  0  0  0  0
  -11.2304  -27.9862   31.6229 N   0  0  0  0  0  0  0  0  0  0  0  0
  1  2  2  0
  2  3  1  0
  3  4  1  0
  4  5  2  0
  5  6  1  0
  6  7  1  0
  7  8  1  0
  8  9  1  0
  9 10  1  0
 10 11  1  0
 11 12  2  0
 12 13  1  0
 13 14  2  0
 14 15  1  0
 15 16  1  0
 16 17  2  0
 17 18  1  0
  7 19  2  0
  3 20  1  0
 20 21  2  0
 21  1  1  0
 19  4  1  0
 18 10  2  0
 17 13  1  0
M  END
>  <name>  (3) 
P42759

>  <HIPPO Compound ID>  (3) 
46521

>  <energy_score>  (3) 
-45.88096

>  <HIPPO Pose ID>  (3) 
42759

>  <inspiration_score>  (3) 
None

>  <ref_pdb>  (3) 
7gqa-a

>  <inchikey>  (3) 
WOHHKMXIYBOTTO-UHFFFAOYSA-N

>  <alias>  (3) 
None

>  <distance_score>  (3) 
2.45874

>  <ref_mols>  (3) 
7goj-a,7goa-b

>  <smiles>  (3) 
c1cn(-c2csc(CNc3ccc4nscc4c3)c2)cn1

$$$$
P60973
     RDKit          3D

 24 26  0  0  0  0  0  0  0  0999 V2000
   17.9238   -5.9579   15.0503 C   0  0  0  0  0  0  0  0  0  0  0  0
   17.1982   -4.7766   15.3961 O   0  0  0  0  0  0  0  0  0  0  0  0
   17.7955   -3.6190   14.9762 C   0  0  0  0  0  0  0  0  0  0  0  0
   18.8370   -3.5778   14.3312 O   0  0  0  0  0  0  0  0  0  0  0  0
   17.0567   -2.3866   15.5078 C   0  0  1  0  0  0  0  0  0  0  0  0
   17.2324   -1.1731   14.6048 C   0  0  0  0  0  0  0  0  0  0  0  0
   16.7708    0.1280   15.1932 C   0  0  0  0  0  0  0  0  0  0  0  0
   16.8343    0.5822   16.5346 C   0  0  0  0  0  0  0  0  0  0  0  0
   16.4124    1.8881   16.4879 C   0  0  0  0  0  0  0  0  0  0  0  0
   16.0456    2.1178   15.1955 N   0  0  0  0  0  0  0  0  0  0  0  0
   16.3012    1.0840   14.3802 N   0  0  0  0  0  0  0  0  0  0  0  0
   15.6592   -2.6077   15.7976 N   0  0  0  0  0  0  0  0  0  0  0  0
   14.4035   -2.4239   14.9039 C   0  0  0  0  0  0  0  0  0  0  0  0
   14.3136   -2.1401   13.7747 O   0  0  0  0  0  0  0  0  0  0  0  0
   13.1469   -2.6913   15.8037 C   0  0  2  0  0  0  0  0  0  0  0  0
   12.0007   -1.7708   15.3298 C   0  0  0  0  0  0  0  0  0  0  0  0
   12.3616   -0.4098   15.8019 C   0  0  0  0  0  0  0  0  0  0  0  0
   12.0106    0.7740   15.2478 N   0  0  0  0  0  0  0  0  0  0  0  0
   12.4963    1.8245   15.9372 N   0  0  0  0  0  0  0  0  0  0  0  0
   13.2387    1.2677   16.9047 C   0  0  0  0  0  0  0  0  0  0  0  0
   13.2228   -0.1314   16.8464 C   0  0  0  0  0  0  0  0  0  0  0  0
   13.8362   -1.1800   17.6303 C   0  0  0  0  0  0  0  0  0  0  0  0
   14.5705   -1.0223   18.5958 O   0  0  0  0  0  0  0  0  0  0  0  0
   13.4931   -2.4588   17.2155 N   0  0  0  0  0  0  0  0  0  0  0  0
  1  2  1  0
  2  3  1  0
  3  4  2  0
  3  5  1  0
  5  6  1  6
  6  7  1  0
  7  8  1  0
  8  9  2  0
  9 10  1  0
 10 11  1  0
  5 12  1  0
 12 13  1  0
 13 14  2  0
 15 13  1  6
 15 16  1  0
 16 17  1  0
 17 18  1  0
 18 19  1  0
 19 20  2  0
 20 21  1  0
 21 22  1  0
 22 23  2  0
 22 24  1  0
 11  7  2  0
 24 15  1  0
 21 17  2  0
M  END
>  <name>  (4) 
P60973

>  <HIPPO Compound ID>  (4) 
98112

>  <energy_score>  (4) 
-28.865323

>  <HIPPO Pose ID>  (4) 
60973

>  <inspiration_score>  (4) 
None

>  <ref_pdb>  (4) 
7got-a

>  <inchikey>  (4) 
AOVBBXNPKSDHLC-WDEREUQCSA-N

>  <alias>  (4) 
None

>  <distance_score>  (4) 
1.74751

>  <ref_mols>  (4) 
7go4-a,7gpo-a

>  <smiles>  (4) 
COC(=O)[C@@H](Cc1cc[nH]n1)NC(=O)[C@@H]1Cc2[nH]ncc2C(=O)N1

$$$$
P60976
     RDKit          3D

 24 26  0  0  0  0  0  0  0  0999 V2000
   -2.2210   -2.2205   32.5269 C   0  0  0  0  0  0  0  0  0  0  0  0
   -1.1134   -1.4088   31.9851 C   0  0  0  0  0  0  0  0  0  0  0  0
   -0.0058   -1.9868   31.4996 N   0  0  0  0  0  0  0  0  0  0  0  0
    0.6679   -0.9672   30.9419 N   0  0  0  0  0  0  0  0  0  0  0  0
    1.7275   -1.2341   29.9818 C   0  0  0  0  0  0  0  0  0  0  0  0
    1.2122   -1.8912   28.6917 C   0  0  0  0  0  0  0  0  0  0  0  0
    0.0043   -1.2593   28.2193 N   0  0  0  0  0  0  0  0  0  0  0  0
   -1.4755   -1.5579   28.5416 C   0  0  0  0  0  0  0  0  0  0  0  0
   -1.9540   -2.4112   29.1796 O   0  0  0  0  0  0  0  0  0  0  0  0
   -2.3933   -0.4694   27.9872 C   0  0  0  0  0  0  0  0  0  0  0  0
   -2.0311    0.5062   26.8968 C   0  0  0  0  0  0  0  0  0  0  0  0
   -1.4803    1.8153   27.3311 C   0  0  0  0  0  0  0  0  0  0  0  0
   -0.5491    1.9987   28.3260 C   0  0  0  0  0  0  0  0  0  0  0  0
   -0.2348    3.3181   28.4038 N   0  0  0  0  0  0  0  0  0  0  0  0
   -0.9012    4.0068   27.4279 C   0  0  0  0  0  0  0  0  0  0  0  0
   -0.8357    5.3617   27.0998 C   0  0  0  0  0  0  0  0  0  0  0  0
   -1.6225    5.8077   26.0375 C   0  0  0  0  0  0  0  0  0  0  0  0
   -1.5217    7.4611   25.5612 Cl  0  0  0  0  0  0  0  0  0  0  0  0
   -2.4725    4.9422   25.3569 C   0  0  0  0  0  0  0  0  0  0  0  0
   -2.5425    3.5899   25.7147 C   0  0  0  0  0  0  0  0  0  0  0  0
   -1.7229    3.1029   26.7549 C   0  0  0  0  0  0  0  0  0  0  0  0
    0.1701    0.2512   31.2987 C   0  0  0  0  0  0  0  0  0  0  0  0
   -1.0312   -0.0085   31.9070 C   0  0  0  0  0  0  0  0  0  0  0  0
   -2.1612    1.0944   32.5057 Cl  0  0  0  0  0  0  0  0  0  0  0  0
  1  2  1  0
  2  3  2  0
  3  4  1  0
  4  5  1  0
  5  6  1  0
  6  7  1  0
  7  8  1  0
  8  9  2  0
  8 10  1  0
 10 11  1  0
 11 12  1  0
 12 13  2  0
 13 14  1  0
 14 15  1  0
 15 16  2  0
 16 17  1  0
 17 18  1  0
 17 19  2  0
 19 20  1  0
 20 21  2  0
  4 22  1  0
 22 23  2  0
 23 24  1  0
 23  2  1  0
 21 12  1  0
 21 15  1  0
M  END
>  <name>  (5) 
P60976

>  <HIPPO Compound ID>  (5) 
98218

>  <energy_score>  (5) 
-0.682157

>  <HIPPO Pose ID>  (5) 
60976

>  <inspiration_score>  (5) 
None

>  <ref_pdb>  (5) 
7go7-a

>  <inchikey>  (5) 
SDDKWSLVKYDDLW-UHFFFAOYSA-N

>  <alias>  (5) 
None

>  <distance_score>  (5) 
1.90597

>  <ref_mols>  (5) 
7goy-a,7gp2-a

>  <smiles>  (5) 
Cc1nn(CCNC(=O)CCc2c[nH]c3cc(Cl)ccc23)cc1Cl

$$$$
P60977
     RDKit          3D

 24 26  0  0  0  0  0  0  0  0999 V2000
   -2.1217   -1.7658   32.3555 C   0  0  0  0  0  0  0  0  0  0  0  0
   -1.4222   -1.6601   31.0522 C   0  0  0  0  0  0  0  0  0  0  0  0
   -0.8158   -2.6125   30.2616 C   0  0  0  0  0  0  0  0  0  0  0  0
   -0.5630   -4.2530   30.5931 Cl  0  0  0  0  0  0  0  0  0  0  0  0
   -0.3979   -1.9379   29.1048 C   0  0  0  0  0  0  0  0  0  0  0  0
   -0.6612   -0.6340   29.1706 N   0  0  0  0  0  0  0  0  0  0  0  0
   -1.1961   -0.4749   30.3983 N   0  0  0  0  0  0  0  0  0  0  0  0
   -1.4289    0.8647   30.8981 C   0  0  0  0  0  0  0  0  0  0  0  0
   -0.2232    1.4179   31.6531 C   0  0  0  0  0  0  0  0  0  0  0  0
    0.6906    2.1051   30.7799 N   0  0  0  0  0  0  0  0  0  0  0  0
    0.8573    3.6189   30.4869 C   0  0  0  0  0  0  0  0  0  0  0  0
    0.3316    4.5439   30.9662 O   0  0  0  0  0  0  0  0  0  0  0  0
    1.9073    3.7552   29.3736 C   0  0  0  0  0  0  0  0  0  0  0  0
    1.3203    4.2189   28.0163 C   0  0  2  0  0  0  0  0  0  0  0  0
    0.9327    5.6975   28.1041 C   0  0  0  0  0  0  0  0  0  0  0  0
    0.2277    3.2947   27.5016 C   0  0  0  0  0  0  0  0  0  0  0  0
    0.2747    1.9158   27.6000 C   0  0  0  0  0  0  0  0  0  0  0  0
   -0.9459    1.4131   27.2717 N   0  0  0  0  0  0  0  0  0  0  0  0
   -1.7048    2.4017   26.7172 C   0  0  0  0  0  0  0  0  0  0  0  0
   -2.9708    2.3275   26.1464 C   0  0  0  0  0  0  0  0  0  0  0  0
   -3.4890    3.4632   25.5303 C   0  0  0  0  0  0  0  0  0  0  0  0
   -2.7754    4.6497   25.5314 C   0  0  0  0  0  0  0  0  0  0  0  0
   -1.5460    4.7359   26.1867 C   0  0  0  0  0  0  0  0  0  0  0  0
   -0.9787    3.5897   26.7831 C   0  0  0  0  0  0  0  0  0  0  0  0
  1  2  1  0
  2  3  2  0
  3  4  1  0
  3  5  1  0
  5  6  2  0
  6  7  1  0
  7  8  1  0
  8  9  1  0
  9 10  1  0
 10 11  1  0
 11 12  2  0
 11 13  1  0
 13 14  1  0
 14 15  1  1
 14 16  1  0
 16 17  2  0
 17 18  1  0
 18 19  1  0
 19 20  2  0
 20 21  1  0
 21 22  2  0
 22 23  1  0
 23 24  2  0
  7  2  1  0
 24 16  1  0
 24 19  1  0
M  END
>  <name>  (6) 
P60977

>  <HIPPO Compound ID>  (6) 
98222

>  <energy_score>  (6) 
-12.890167

>  <HIPPO Pose ID>  (6) 
60977

>  <inspiration_score>  (6) 
None

>  <ref_pdb>  (6) 
7go7-a

>  <inchikey>  (6) 
GRCKWCRYNPMBCN-LBPRGKRZSA-N

>  <alias>  (6) 
None

>  <distance_score>  (6) 
1.922297

>  <ref_mols>  (6) 
7goy-a,7gp2-a

>  <smiles>  (6) 
Cc1c(Cl)cnn1CCNC(=O)C[C@H](C)c1c[nH]c2ccccc12

$$$$
P60978
     RDKit          3D

 24 26  0  0  0  0  0  0  0  0999 V2000
   -2.9812   -1.3523   31.9664 C   0  0  0  0  0  0  0  0  0  0  0  0
   -1.7308   -0.8248   31.3718 C   0  0  0  0  0  0  0  0  0  0  0  0
   -1.2336    0.3458   31.8019 N   0  0  0  0  0  0  0  0  0  0  0  0
   -0.0407    0.4423   31.1736 N   0  0  0  0  0  0  0  0  0  0  0  0
    0.9104    1.4572   31.5945 C   0  0  0  0  0  0  0  0  0  0  0  0
    0.4786    2.8767   31.2457 C   0  0  0  0  0  0  0  0  0  0  0  0
    0.8614    3.2877   29.9179 N   0  0  0  0  0  0  0  0  0  0  0  0
    2.2619    3.4886   29.2937 C   0  0  0  0  0  0  0  0  0  0  0  0
    3.3211    3.4273   29.7782 O   0  0  0  0  0  0  0  0  0  0  0  0
    2.0698    3.8545   27.8233 C   0  0  0  0  0  0  0  0  0  0  0  0
    1.7290    2.6645   26.9078 C   0  0  1  0  0  0  0  0  0  0  0  0
    2.6641    1.4778   27.1702 C   0  0  0  0  0  0  0  0  0  0  0  0
    0.2533    2.3221   26.9404 C   0  0  0  0  0  0  0  0  0  0  0  0
   -0.3458    1.1964   27.4682 C   0  0  0  0  0  0  0  0  0  0  0  0
   -1.6987    1.3357   27.3837 N   0  0  0  0  0  0  0  0  0  0  0  0
   -1.9932    2.4623   26.6601 C   0  0  0  0  0  0  0  0  0  0  0  0
   -3.2188    2.9433   26.2058 C   0  0  0  0  0  0  0  0  0  0  0  0
   -3.2202    4.0850   25.4015 C   0  0  0  0  0  0  0  0  0  0  0  0
   -2.0478    4.7710   25.1232 C   0  0  0  0  0  0  0  0  0  0  0  0
   -0.8325    4.2984   25.6141 C   0  0  0  0  0  0  0  0  0  0  0  0
   -0.7963    3.1076   26.3694 C   0  0  0  0  0  0  0  0  0  0  0  0
    0.2001   -0.5932   30.3211 C   0  0  0  0  0  0  0  0  0  0  0  0
   -0.8908   -1.4189   30.4032 C   0  0  0  0  0  0  0  0  0  0  0  0
   -1.1176   -2.8802   29.5886 Cl  0  0  0  0  0  0  0  0  0  0  0  0
  1  2  1  0
  2  3  2  0
  3  4  1  0
  4  5  1  0
  5  6  1  0
  6  7  1  0
  7  8  1  0
  8  9  2  0
  8 10  1  0
 10 11  1  0
 11 12  1  1
 11 13  1  0
 13 14  2  0
 14 15  1  0
 15 16  1  0
 16 17  2  0
 17 18  1  0
 18 19  2  0
 19 20  1  0
 20 21  2  0
  4 22  1  0
 22 23  2  0
 23 24  1  0
 23  2  1  0
 21 13  1  0
 21 16  1  0
M  END
>  <name>  (7) 
P60978

>  <HIPPO Compound ID>  (7) 
98223

>  <energy_score>  (7) 
-22.697925

>  <HIPPO Pose ID>  (7) 
60978

>  <inspiration_score>  (7) 
None

>  <ref_pdb>  (7) 
7go7-a

>  <inchikey>  (7) 
DOPQACBDKAMKRK-GFCCVEGCSA-N

>  <alias>  (7) 
None

>  <distance_score>  (7) 
1.788435

>  <ref_mols>  (7) 
7goy-a,7gp2-a

>  <smiles>  (7) 
Cc1nn(CCNC(=O)C[C@@H](C)c2c[nH]c3ccccc23)cc1Cl

$$$$
P60979
     RDKit          3D

 24 26  0  0  0  0  0  0  0  0999 V2000
   -3.9759    4.2590   24.2471 C   0  0  0  0  0  0  0  0  0  0  0  0
   -2.9054    4.0929   25.2795 C   0  0  0  0  0  0  0  0  0  0  0  0
   -2.0989    5.1779   25.6133 C   0  0  0  0  0  0  0  0  0  0  0  0
   -1.0307    5.0187   26.4908 C   0  0  0  0  0  0  0  0  0  0  0  0
   -0.7172    3.7365   26.9779 C   0  0  0  0  0  0  0  0  0  0  0  0
    0.3462    3.2139   27.7700 C   0  0  0  0  0  0  0  0  0  0  0  0
    1.4490    4.0166   28.3997 C   0  0  0  0  0  0  0  0  0  0  0  0
    1.9754    3.4829   29.7319 C   0  0  0  0  0  0  0  0  0  0  0  0
    0.8745    3.4270   30.7916 C   0  0  0  0  0  0  0  0  0  0  0  0
    0.4400    4.3838   31.2982 O   0  0  0  0  0  0  0  0  0  0  0  0
    0.4522    1.9424   30.9225 N   0  0  0  0  0  0  0  0  0  0  0  0
   -0.5254    1.3226   31.7722 C   0  0  0  0  0  0  0  0  0  0  0  0
   -1.6838    0.7527   30.9588 C   0  0  0  0  0  0  0  0  0  0  0  0
   -1.3845   -0.5542   30.4116 N   0  0  0  0  0  0  0  0  0  0  0  0
   -0.9301   -0.6522   29.1458 N   0  0  0  0  0  0  0  0  0  0  0  0
   -0.5668   -1.9293   29.0381 C   0  0  0  0  0  0  0  0  0  0  0  0
   -0.8606   -2.6543   30.2028 C   0  0  0  0  0  0  0  0  0  0  0  0
   -0.4773   -4.2805   30.4763 Cl  0  0  0  0  0  0  0  0  0  0  0  0
   -1.4858   -1.7641   31.0491 C   0  0  0  0  0  0  0  0  0  0  0  0
   -2.1033   -1.9397   32.3855 C   0  0  0  0  0  0  0  0  0  0  0  0
    0.2019    1.8437   27.7557 C   0  0  0  0  0  0  0  0  0  0  0  0
   -1.0292    1.5494   27.2432 N   0  0  0  0  0  0  0  0  0  0  0  0
   -1.5528    2.6723   26.6604 C   0  0  0  0  0  0  0  0  0  0  0  0
   -2.6822    2.8354   25.8626 C   0  0  0  0  0  0  0  0  0  0  0  0
  1  2  1  0
  2  3  2  0
  3  4  1  0
  4  5  2  0
  5  6  1  0
  6  7  1  0
  7  8  1  0
  8  9  1  0
  9 10  2  0
  9 11  1  0
 11 12  1  0
 12 13  1  0
 13 14  1  0
 14 15  1  0
 15 16  2  0
 16 17  1  0
 17 18  1  0
 17 19  2  0
 19 20  1  0
  6 21  2  0
 21 22  1  0
 22 23  1  0
 23 24  2  0
 24  2  1  0
 23  5  1  0
 19 14  1  0
M  END
>  <name>  (8) 
P60979

>  <HIPPO Compound ID>  (8) 
98225

>  <energy_score>  (8) 
-20.566377

>  <HIPPO Pose ID>  (8) 
60979

>  <inspiration_score>  (8) 
None

>  <ref_pdb>  (8) 
7go7-a

>  <inchikey>  (8) 
UNKBDEJTIDAFGK-UHFFFAOYSA-N

>  <alias>  (8) 
None

>  <distance_score>  (8) 
1.875747

>  <ref_mols>  (8) 
7goy-a,7gp2-a

>  <smiles>  (8) 
Cc1ccc2c(CCC(=O)NCCn3ncc(Cl)c3C)c[nH]c2c1

$$$$
P60980
     RDKit          3D

 24 26  0  0  0  0  0  0  0  0999 V2000
   -1.0220    6.0827   26.4196 C   0  0  0  0  0  0  0  0  0  0  0  0
   -1.4787    4.6498   26.4247 C   0  0  0  0  0  0  0  0  0  0  0  0
   -2.7220    4.3420   25.8447 C   0  0  0  0  0  0  0  0  0  0  0  0
   -3.2314    3.0489   25.8433 C   0  0  0  0  0  0  0  0  0  0  0  0
   -2.5088    1.9899   26.3775 C   0  0  0  0  0  0  0  0  0  0  0  0
   -1.2527    2.2805   26.9036 C   0  0  0  0  0  0  0  0  0  0  0  0
   -0.3280    1.4309   27.4506 N   0  0  0  0  0  0  0  0  0  0  0  0
    0.7822    2.1299   27.8201 C   0  0  0  0  0  0  0  0  0  0  0  0
    0.5298    3.4738   27.6527 C   0  0  0  0  0  0  0  0  0  0  0  0
    1.4226    4.5549   28.1756 C   0  0  0  0  0  0  0  0  0  0  0  0
    0.9499    5.1077   29.5214 C   0  0  0  0  0  0  0  0  0  0  0  0
    1.1130    4.1235   30.6861 C   0  0  0  0  0  0  0  0  0  0  0  0
    1.9987    4.1917   31.4432 O   0  0  0  0  0  0  0  0  0  0  0  0
   -0.1099    3.1708   30.6541 N   0  0  0  0  0  0  0  0  0  0  0  0
   -0.4429    2.0449   31.4938 C   0  0  0  0  0  0  0  0  0  0  0  0
    0.2986    0.7720   31.1271 C   0  0  0  0  0  0  0  0  0  0  0  0
   -0.5448   -0.2723   30.5664 N   0  0  0  0  0  0  0  0  0  0  0  0
   -0.3654   -0.6374   29.2723 N   0  0  0  0  0  0  0  0  0  0  0  0
   -0.6148   -1.9494   29.2878 C   0  0  0  0  0  0  0  0  0  0  0  0
   -1.0618   -2.3737   30.5473 C   0  0  0  0  0  0  0  0  0  0  0  0
   -1.2598   -3.9602   31.0873 Cl  0  0  0  0  0  0  0  0  0  0  0  0
   -1.2239   -1.2277   31.2897 C   0  0  0  0  0  0  0  0  0  0  0  0
   -1.7906   -1.0307   32.6426 C   0  0  0  0  0  0  0  0  0  0  0  0
   -0.7241    3.5773   26.9644 C   0  0  0  0  0  0  0  0  0  0  0  0
  1  2  1  0
  2  3  2  0
  3  4  1  0
  4  5  2  0
  5  6  1  0
  6  7  1  0
  7  8  1  0
  8  9  2  0
  9 10  1  0
 10 11  1  0
 11 12  1  0
 12 13  2  0
 12 14  1  0
 14 15  1  0
 15 16  1  0
 16 17  1  0
 17 18  1  0
 18 19  2  0
 19 20  1  0
 20 21  1  0
 20 22  2  0
 22 23  1  0
  9 24  1  0
 24  2  1  0
 24  6  2  0
 22 17  1  0
M  END
>  <name>  (9) 
P60980

>  <HIPPO Compound ID>  (9) 
98226

>  <energy_score>  (9) 
-10.468062

>  <HIPPO Pose ID>  (9) 
60980

>  <inspiration_score>  (9) 
None

>  <ref_pdb>  (9) 
7go7-a

>  <inchikey>  (9) 
YFOGOWKYBRJFNH-UHFFFAOYSA-N

>  <alias>  (9) 
None

>  <distance_score>  (9) 
1.512641

>  <ref_mols>  (9) 
7goy-a,7gp2-a

>  <smiles>  (9) 
Cc1cccc2[nH]cc(CCC(=O)NCCn3ncc(Cl)c3C)c12

$$$$
P60981
     RDKit          3D

 25 27  0  0  0  0  0  0  0  0999 V2000
   -3.9067    3.8936   24.5221 C   0  0  0  0  0  0  0  0  0  0  0  0
   -3.2497    4.8029   25.3845 O   0  0  0  0  0  0  0  0  0  0  0  0
   -2.2078    4.3159   26.1128 C   0  0  0  0  0  0  0  0  0  0  0  0
   -1.3773    5.3144   26.6192 C   0  0  0  0  0  0  0  0  0  0  0  0
   -0.1971    4.9945   27.2818 C   0  0  0  0  0  0  0  0  0  0  0  0
    0.1590    3.6420   27.3999 C   0  0  0  0  0  0  0  0  0  0  0  0
    1.3148    2.9763   27.9002 C   0  0  0  0  0  0  0  0  0  0  0  0
    2.5212    3.5982   28.5435 C   0  0  0  0  0  0  0  0  0  0  0  0
    2.8743    3.0189   29.9182 C   0  0  0  0  0  0  0  0  0  0  0  0
    1.7562    3.2649   30.9277 C   0  0  0  0  0  0  0  0  0  0  0  0
    1.7030    4.2211   31.5937 O   0  0  0  0  0  0  0  0  0  0  0  0
    0.7569    2.0928   30.7739 N   0  0  0  0  0  0  0  0  0  0  0  0
   -0.5452    1.9047   31.3310 C   0  0  0  0  0  0  0  0  0  0  0  0
   -0.8384    0.4897   31.7865 C   0  0  0  0  0  0  0  0  0  0  0  0
   -0.8940   -0.5452   30.7737 N   0  0  0  0  0  0  0  0  0  0  0  0
   -0.4149   -0.3389   29.5302 N   0  0  0  0  0  0  0  0  0  0  0  0
   -0.2559   -1.5683   29.0416 C   0  0  0  0  0  0  0  0  0  0  0  0
   -0.6934   -2.5476   29.9405 C   0  0  0  0  0  0  0  0  0  0  0  0
   -0.4878   -4.2113   29.7263 Cl  0  0  0  0  0  0  0  0  0  0  0  0
   -1.2296   -1.8593   31.0075 C   0  0  0  0  0  0  0  0  0  0  0  0
   -1.9192   -2.3112   32.2395 C   0  0  0  0  0  0  0  0  0  0  0  0
    1.1227    1.6336   27.6529 C   0  0  0  0  0  0  0  0  0  0  0  0
   -0.1696    1.4527   27.2446 N   0  0  0  0  0  0  0  0  0  0  0  0
   -0.7358    2.6630   26.9552 C   0  0  0  0  0  0  0  0  0  0  0  0
   -1.9507    2.9630   26.3385 C   0  0  0  0  0  0  0  0  0  0  0  0
  1  2  1  0
  2  3  1  0
  3  4  2  0
  4  5  1  0
  5  6  2  0
  6  7  1  0
  7  8  1  0
  8  9  1  0
  9 10  1  0
 10 11  2  0
 10 12  1  0
 12 13  1  0
 13 14  1  0
 14 15  1  0
 15 16  1  0
 16 17  2  0
 17 18  1  0
 18 19  1  0
 18 20  2  0
 20 21  1  0
  7 22  2  0
 22 23  1  0
 23 24  1  0
 24 25  2  0
 25  3  1  0
 24  6  1  0
 20 15  1  0
M  END
>  <name>  (10) 
P60981

>  <HIPPO Compound ID>  (10) 
98229

>  <energy_score>  (10) 
-4.026272

>  <HIPPO Pose ID>  (10) 
60981

>  <inspiration_score>  (10) 
None

>  <ref_pdb>  (10) 
7go7-a

>  <inchikey>  (10) 
UAOYFCGNNJTDCQ-UHFFFAOYSA-N

>  <alias>  (10) 
None

>  <distance_score>  (10) 
1.80842

>  <ref_mols>  (10) 
7goy-a,7gp2-a

>  <smiles>  (10) 
COc1ccc2c(CCC(=O)NCCn3ncc(Cl)c3C)c[nH]c2c1

$$$$
P60983
     RDKit          3D

 25 27  0  0  0  0  0  0  0  0999 V2000
   -2.2006    5.5245   23.9864 C   0  0  0  0  0  0  0  0  0  0  0  0
   -1.9951    4.5070   25.0708 C   0  0  0  0  0  0  0  0  0  0  0  0
   -2.8167    3.3823   25.1469 C   0  0  0  0  0  0  0  0  0  0  0  0
   -2.6759    2.4215   26.1522 C   0  0  0  0  0  0  0  0  0  0  0  0
   -1.7073    2.6586   27.1250 C   0  0  0  0  0  0  0  0  0  0  0  0
   -1.3948    1.9467   28.2545 N   0  0  0  0  0  0  0  0  0  0  0  0
   -0.4885    2.6454   29.0010 C   0  0  0  0  0  0  0  0  0  0  0  0
   -0.1261    3.7838   28.3169 C   0  0  0  0  0  0  0  0  0  0  0  0
    0.8222    4.8355   28.8034 C   0  0  0  0  0  0  0  0  0  0  0  0
    2.2853    4.4798   28.5704 C   0  0  0  0  0  0  0  0  0  0  0  0
    2.8323    3.5945   29.6879 C   0  0  0  0  0  0  0  0  0  0  0  0
    3.3141    4.0418   30.6518 O   0  0  0  0  0  0  0  0  0  0  0  0
    2.6598    2.1207   29.2433 N   0  0  0  0  0  0  0  0  0  0  0  0
    2.9595    0.8916   29.9374 C   0  0  0  0  0  0  0  0  0  0  0  0
    1.9635    0.5241   31.0361 C   0  0  0  0  0  0  0  0  0  0  0  0
    0.6604   -0.0373   30.7092 N   0  0  0  0  0  0  0  0  0  0  0  0
   -0.2493   -0.0409   31.7235 N   0  0  0  0  0  0  0  0  0  0  0  0
   -1.2227   -0.8567   31.3109 C   0  0  0  0  0  0  0  0  0  0  0  0
   -2.3585   -1.2031   32.2020 C   0  0  0  0  0  0  0  0  0  0  0  0
   -0.9822   -1.2876   29.9982 C   0  0  0  0  0  0  0  0  0  0  0  0
   -1.9455   -2.3300   29.1052 Cl  0  0  0  0  0  0  0  0  0  0  0  0
    0.1936   -0.6958   29.5948 C   0  0  0  0  0  0  0  0  0  0  0  0
    0.8498   -0.7739   28.2665 C   0  0  0  0  0  0  0  0  0  0  0  0
   -0.9010    3.7998   27.1196 C   0  0  0  0  0  0  0  0  0  0  0  0
   -1.0334    4.7227   26.0636 C   0  0  0  0  0  0  0  0  0  0  0  0
  1  2  1  0
  2  3  2  0
  3  4  1  0
  4  5  2  0
  5  6  1  0
  6  7  1  0
  7  8  2  0
  8  9  1  0
  9 10  1  0
 10 11  1  0
 11 12  2  0
 11 13  1  0
 13 14  1  0
 14 15  1  0
 15 16  1  0
 16 17  1  0
 17 18  2  0
 18 19  1  0
 18 20  1  0
 20 21  1  0
 20 22  2  0
 22 23  1  0
  8 24  1  0
 24 25  2  0
 25  2  1  0
 24  5  1  0
 22 16  1  0
M  END
>  <name>  (11) 
P60983

>  <HIPPO Compound ID>  (11) 
98231

>  <energy_score>  (11) 
-2.753841

>  <HIPPO Pose ID>  (11) 
60983

>  <inspiration_score>  (11) 
None

>  <ref_pdb>  (11) 
7go7-a

>  <inchikey>  (11) 
NKGBFIIZPIYMHA-UHFFFAOYSA-N

>  <alias>  (11) 
None

>  <distance_score>  (11) 
1.081477

>  <ref_mols>  (11) 
7goy-a,7gp2-a

>  <smiles>  (11) 
Cc1ccc2[nH]cc(CCC(=O)NCCn3nc(C)c(Cl)c3C)c2c1

$$$$
P60984
     RDKit          3D

 25 28  0  0  0  0  0  0  0  0999 V2000
   -4.4644    2.1645   34.7017 C   0  0  0  0  0  0  0  0  0  0  0  0
   -5.4114    1.2417   35.3719 C   0  0  0  0  0  0  0  0  0  0  0  0
   -6.3105    1.4829   36.3884 C   0  0  0  0  0  0  0  0  0  0  0  0
   -6.6151    2.9319   37.2088 Cl  0  0  0  0  0  0  0  0  0  0  0  0
   -6.9507    0.2574   36.6179 C   0  0  0  0  0  0  0  0  0  0  0  0
   -6.5012   -0.7082   35.8126 N   0  0  0  0  0  0  0  0  0  0  0  0
   -5.5458   -0.0983   35.0768 N   0  0  0  0  0  0  0  0  0  0  0  0
   -4.8702   -0.8503   34.0291 C   0  0  0  0  0  0  0  0  0  0  0  0
   -3.3577   -0.9752   34.2407 C   0  0  0  0  0  0  0  0  0  0  0  0
   -2.6177   -0.6616   33.0370 N   0  0  0  0  0  0  0  0  0  0  0  0
   -2.6159   -1.3573   31.6373 C   0  0  0  0  0  0  0  0  0  0  0  0
   -3.1531   -2.3312   31.2749 O   0  0  0  0  0  0  0  0  0  0  0  0
   -1.7989   -0.3895   30.7550 C   0  0  2  0  0  0  0  0  0  0  0  0
   -1.6328   -0.7453   29.2596 C   0  0  0  0  0  0  0  0  0  0  0  0
   -0.9838    0.4692   28.6735 C   0  0  0  0  0  0  0  0  0  0  0  0
    0.0223    1.0477   29.4149 C   0  0  0  0  0  0  0  0  0  0  0  0
    0.4528    2.1612   28.7604 N   0  0  0  0  0  0  0  0  0  0  0  0
   -0.4562    2.4788   27.7752 C   0  0  0  0  0  0  0  0  0  0  0  0
   -0.5801    3.6520   27.0216 C   0  0  0  0  0  0  0  0  0  0  0  0
   -1.6514    3.7441   26.1315 C   0  0  0  0  0  0  0  0  0  0  0  0
   -2.5430    2.6902   25.9796 C   0  0  0  0  0  0  0  0  0  0  0  0
   -2.3809    1.5055   26.7155 C   0  0  0  0  0  0  0  0  0  0  0  0
   -1.3397    1.3995   27.6565 C   0  0  0  0  0  0  0  0  0  0  0  0
    0.3630    0.5887   30.7308 C   0  0  0  0  0  0  0  0  0  0  0  0
   -0.4754   -0.1124   31.4321 N   0  0  0  0  0  0  0  0  0  0  0  0
  1  2  1  0
  2  3  2  0
  3  4  1  0
  3  5  1  0
  5  6  2  0
  6  7  1  0
  7  8  1  0
  8  9  1  0
  9 10  1  0
 10 11  1  0
 11 12  2  0
 13 11  1  1
 13 14  1  0
 14 15  1  0
 15 16  2  0
 16 17  1  0
 17 18  1  0
 18 19  2  0
 19 20  1  0
 20 21  2  0
 21 22  1  0
 22 23  2  0
 16 24  1  0
 24 25  2  0
  7  2  1  0
 25 13  1  0
 23 15  1  0
 23 18  1  0
M  END
>  <name>  (12) 
P60984

>  <HIPPO Compound ID>  (12) 
98235

>  <energy_score>  (12) 
-7.179052

>  <HIPPO Pose ID>  (12) 
60984

>  <inspiration_score>  (12) 
None

>  <ref_pdb>  (12) 
7go7-a

>  <inchikey>  (12) 
PXWBIXFDDGZFLA-INIZCTEOSA-N

>  <alias>  (12) 
None

>  <distance_score>  (12) 
0.997718

>  <ref_mols>  (12) 
7goy-a,7gp2-a

>  <smiles>  (12) 
Cc1c(Cl)cnn1CCNC(=O)[C@@H]1Cc2c([nH]c3ccccc23)C=N1

$$$$
P60987
     RDKit          3D

 25 27  0  0  0  0  0  0  0  0999 V2000
   -2.3038   -1.7240   32.6782 C   0  0  0  0  0  0  0  0  0  0  0  0
   -1.5439   -1.2449   31.5012 C   0  0  0  0  0  0  0  0  0  0  0  0
   -1.5100    0.0630   31.2171 N   0  0  0  0  0  0  0  0  0  0  0  0
   -0.8359    0.1184   30.0527 N   0  0  0  0  0  0  0  0  0  0  0  0
   -0.9310    1.3334   29.2612 C   0  0  0  0  0  0  0  0  0  0  0  0
   -2.2865    1.3160   28.5922 C   0  0  0  0  0  0  0  0  0  0  0  0
   -2.5987    2.4019   27.7069 N   0  0  0  0  0  0  0  0  0  0  0  0
   -3.3665    2.4151   26.3761 C   0  0  0  0  0  0  0  0  0  0  0  0
   -3.9322    1.5641   25.8259 O   0  0  0  0  0  0  0  0  0  0  0  0
   -3.2797    3.7930   25.7507 C   0  0  0  0  0  0  0  0  0  0  0  0
   -1.9820    3.9081   24.9568 C   0  0  0  0  0  0  0  0  0  0  0  0
   -0.8219    3.8687   25.8872 C   0  0  0  0  0  0  0  0  0  0  0  0
    0.0471    2.8293   26.1252 C   0  0  0  0  0  0  0  0  0  0  0  0
    0.8617    3.1670   27.1677 N   0  0  0  0  0  0  0  0  0  0  0  0
    0.4898    4.3892   27.6616 C   0  0  0  0  0  0  0  0  0  0  0  0
    0.9722    5.1028   28.7573 C   0  0  0  0  0  0  0  0  0  0  0  0
    0.4552    6.3842   28.9695 C   0  0  0  0  0  0  0  0  0  0  0  0
    1.0393    7.3128   30.2986 Cl  0  0  0  0  0  0  0  0  0  0  0  0
   -0.5166    6.9218   28.1309 C   0  0  0  0  0  0  0  0  0  0  0  0
   -1.0251    6.1730   27.0630 C   0  0  0  0  0  0  0  0  0  0  0  0
   -0.5031    4.8897   26.8223 C   0  0  0  0  0  0  0  0  0  0  0  0
   -0.3940   -1.0976   29.6024 C   0  0  0  0  0  0  0  0  0  0  0  0
    0.3304   -1.2697   28.3175 C   0  0  0  0  0  0  0  0  0  0  0  0
   -0.8313   -2.0033   30.5421 C   0  0  0  0  0  0  0  0  0  0  0  0
   -0.6111   -3.6837   30.5549 Cl  0  0  0  0  0  0  0  0  0  0  0  0
  1  2  1  0
  2  3  2  0
  3  4  1  0
  4  5  1  0
  5  6  1  0
  6  7  1  0
  7  8  1  0
  8  9  2  0
  8 10  1  0
 10 11  1  0
 11 12  1  0
 12 13  2  0
 13 14  1  0
 14 15  1  0
 15 16  2  0
 16 17  1  0
 17 18  1  0
 17 19  2  0
 19 20  1  0
 20 21  2  0
  4 22  1  0
 22 23  1  0
 22 24  2  0
 24 25  1  0
 24  2  1  0
 21 12  1  0
 21 15  1  0
M  END
>  <name>  (13) 
P60987

>  <HIPPO Compound ID>  (13) 
98238

>  <energy_score>  (13) 
-0.012316

>  <HIPPO Pose ID>  (13) 
60987

>  <inspiration_score>  (13) 
None

>  <ref_pdb>  (13) 
7go7-a

>  <inchikey>  (13) 
NDURBCKKHZQMIX-UHFFFAOYSA-N

>  <alias>  (13) 
None

>  <distance_score>  (13) 
1.882203

>  <ref_mols>  (13) 
7goy-a,7gp2-a

>  <smiles>  (13) 
Cc1nn(CCNC(=O)CCc2c[nH]c3cc(Cl)ccc23)c(C)c1Cl

$$$$
P60988
     RDKit          3D

 25 27  0  0  0  0  0  0  0  0999 V2000
   -2.1484   -1.7312   32.5741 C   0  0  0  0  0  0  0  0  0  0  0  0
   -1.2215   -1.2622   31.5180 C   0  0  0  0  0  0  0  0  0  0  0  0
   -0.7016   -0.0286   31.5625 N   0  0  0  0  0  0  0  0  0  0  0  0
   -0.0087    0.0680   30.4029 N   0  0  0  0  0  0  0  0  0  0  0  0
    0.7458    1.2761   30.1459 C   0  0  0  0  0  0  0  0  0  0  0  0
   -0.1132    2.5233   30.1807 C   0  0  0  0  0  0  0  0  0  0  0  0
   -0.9838    2.6910   29.0412 N   0  0  0  0  0  0  0  0  0  0  0  0
   -2.1219    1.7762   28.4938 C   0  0  0  0  0  0  0  0  0  0  0  0
   -2.4715    0.7161   28.8378 O   0  0  0  0  0  0  0  0  0  0  0  0
   -2.8086    2.5322   27.3465 C   0  0  0  0  0  0  0  0  0  0  0  0
   -2.1658    2.1919   26.0211 C   0  0  0  0  0  0  0  0  0  0  0  0
   -0.8333    2.8188   26.0204 C   0  0  0  0  0  0  0  0  0  0  0  0
    0.3438    2.2186   26.4004 C   0  0  0  0  0  0  0  0  0  0  0  0
    1.2513    3.2021   26.6497 N   0  0  0  0  0  0  0  0  0  0  0  0
    0.6635    4.4363   26.4963 C   0  0  0  0  0  0  0  0  0  0  0  0
    1.1537    5.7179   26.7814 C   0  0  0  0  0  0  0  0  0  0  0  0
    2.5178    5.9981   27.3434 C   0  0  0  0  0  0  0  0  0  0  0  0
    0.3054    6.8009   26.4775 C   0  0  0  0  0  0  0  0  0  0  0  0
   -0.9677    6.6120   25.9477 C   0  0  0  0  0  0  0  0  0  0  0  0
   -1.4464    5.3252   25.7064 C   0  0  0  0  0  0  0  0  0  0  0  0
   -0.6116    4.2232   25.9767 C   0  0  0  0  0  0  0  0  0  0  0  0
   -0.0491   -1.0675   29.6387 C   0  0  0  0  0  0  0  0  0  0  0  0
    0.5220   -1.1909   28.2771 C   0  0  0  0  0  0  0  0  0  0  0  0
   -0.7406   -1.9771   30.4012 C   0  0  0  0  0  0  0  0  0  0  0  0
   -0.9542   -3.6196   30.0871 Cl  0  0  0  0  0  0  0  0  0  0  0  0
  1  2  1  0
  2  3  2  0
  3  4  1  0
  4  5  1  0
  5  6  1  0
  6  7  1  0
  7  8  1  0
  8  9  2  0
  8 10  1  0
 10 11  1  0
 11 12  1  0
 12 13  2  0
 13 14  1  0
 14 15  1  0
 15 16  2  0
 16 17  1  0
 16 18  1  0
 18 19  2  0
 19 20  1  0
 20 21  2  0
  4 22  1  0
 22 23  1  0
 22 24  2  0
 24 25  1  0
 24  2  1  0
 21 12  1  0
 21 15  1  0
M  END
>  <name>  (14) 
P60988

>  <HIPPO Compound ID>  (14) 
98242

>  <energy_score>  (14) 
-6.516415

>  <HIPPO Pose ID>  (14) 
60988

>  <inspiration_score>  (14) 
None

>  <ref_pdb>  (14) 
7go7-a

>  <inchikey>  (14) 
SNXUSFZAFPXENP-UHFFFAOYSA-N

>  <alias>  (14) 
None

>  <distance_score>  (14) 
1.81428

>  <ref_mols>  (14) 
7goy-a,7gp2-a

>  <smiles>  (14) 
Cc1nn(CCNC(=O)CCc2c[nH]c3c(C)cccc23)c(C)c1Cl

$$$$
P60990
     RDKit          3D

 25 27  0  0  0  0  0  0  0  0999 V2000
    1.8517    1.7177   30.5301 C   0  0  0  0  0  0  0  0  0  0  0  0
    0.4190    2.1202   30.2010 C   0  0  0  0  0  0  0  0  0  0  0  0
   -0.3536    1.0079   29.4431 C   0  0  1  0  0  0  0  0  0  0  0  0
   -1.3431    0.2718   30.3805 C   0  0  0  0  0  0  0  0  0  0  0  0
   -0.7079   -0.0148   31.6571 N   0  0  0  0  0  0  0  0  0  0  0  0
   -0.9872    0.5556   33.0705 C   0  0  0  0  0  0  0  0  0  0  0  0
   -1.8205    1.2853   33.4407 O   0  0  0  0  0  0  0  0  0  0  0  0
    0.1365    0.0808   34.0041 C   0  0  0  0  0  0  0  0  0  0  0  0
    0.1824   -1.3988   34.3544 C   0  0  0  0  0  0  0  0  0  0  0  0
    0.7250   -2.2912   33.2787 C   0  0  0  0  0  0  0  0  0  0  0  0
    1.8369   -2.0983   32.4782 C   0  0  0  0  0  0  0  0  0  0  0  0
    1.8696   -3.0981   31.5403 N   0  0  0  0  0  0  0  0  0  0  0  0
    0.8338   -3.9758   31.7495 C   0  0  0  0  0  0  0  0  0  0  0  0
    0.4422   -5.1134   31.0336 C   0  0  0  0  0  0  0  0  0  0  0  0
   -0.6254   -5.8545   31.5469 C   0  0  0  0  0  0  0  0  0  0  0  0
   -1.2147   -7.2209   30.6882 Cl  0  0  0  0  0  0  0  0  0  0  0  0
   -1.2529   -5.4992   32.7322 C   0  0  0  0  0  0  0  0  0  0  0  0
   -0.8848   -4.3321   33.4002 C   0  0  0  0  0  0  0  0  0  0  0  0
    0.1615   -3.5436   32.8909 C   0  0  0  0  0  0  0  0  0  0  0  0
   -0.9449    1.5780   28.2314 N   0  0  0  0  0  0  0  0  0  0  0  0
   -0.2395    2.1573   27.2076 C   0  0  0  0  0  0  0  0  0  0  0  0
   -1.1656    2.7973   26.4234 C   0  0  0  0  0  0  0  0  0  0  0  0
   -0.9006    3.7060   25.0241 Cl  0  0  0  0  0  0  0  0  0  0  0  0
   -2.4024    2.5039   27.0125 C   0  0  0  0  0  0  0  0  0  0  0  0
   -2.2721    1.7142   28.0861 N   0  0  0  0  0  0  0  0  0  0  0  0
  1  2  1  0
  3  2  1  1
  3  4  1  0
  4  5  1  0
  5  6  1  0
  6  7  2  0
  6  8  1  0
  8  9  1  0
  9 10  1  0
 10 11  2  0
 11 12  1  0
 12 13  1  0
 13 14  2  0
 14 15  1  0
 15 16  1  0
 15 17  2  0
 17 18  1  0
 18 19  2  0
  3 20  1  0
 20 21  1  0
 21 22  2  0
 22 23  1  0
 22 24  1  0
 24 25  2  0
 19 10  1  0
 25 20  1  0
 19 13  1  0
M  END
>  <name>  (15) 
P60990

>  <HIPPO Compound ID>  (15) 
98245

>  <energy_score>  (15) 
-6.720995

>  <HIPPO Pose ID>  (15) 
60990

>  <inspiration_score>  (15) 
None

>  <ref_pdb>  (15) 
7go7-a

>  <inchikey>  (15) 
ZKECHIGIIMXJFI-HNNXBMFYSA-N

>  <alias>  (15) 
None

>  <distance_score>  (15) 
1.538043

>  <ref_mols>  (15) 
7goy-a,7gp2-a

>  <smiles>  (15) 
CC[C@@H](CNC(=O)CCc1c[nH]c2cc(Cl)ccc12)n1cc(Cl)cn1

$$$$
P60992
     RDKit          3D

 25 27  0  0  0  0  0  0  0  0999 V2000
   -6.6983   -0.8540   32.8932 C   0  0  0  0  0  0  0  0  0  0  0  0
   -5.5950    0.1175   33.2953 C   0  0  0  0  0  0  0  0  0  0  0  0
   -4.6126   -0.4937   34.3109 C   0  0  1  0  0  0  0  0  0  0  0  0
   -3.2561    0.2573   34.3212 C   0  0  0  0  0  0  0  0  0  0  0  0
   -2.5927    0.4951   33.0468 N   0  0  0  0  0  0  0  0  0  0  0  0
   -2.5519   -0.3700   31.7503 C   0  0  0  0  0  0  0  0  0  0  0  0
   -3.1070   -1.3638   31.4859 O   0  0  0  0  0  0  0  0  0  0  0  0
   -1.5975    0.3576   30.7934 C   0  0  0  0  0  0  0  0  0  0  0  0
   -1.8705    0.0556   29.3147 C   0  0  0  0  0  0  0  0  0  0  0  0
   -0.9717    0.8550   28.4084 C   0  0  0  0  0  0  0  0  0  0  0  0
    0.3683    0.5799   28.2050 C   0  0  0  0  0  0  0  0  0  0  0  0
    1.2242   -0.5418   28.6751 C   0  0  0  0  0  0  0  0  0  0  0  0
    0.9010    1.6049   27.4748 N   0  0  0  0  0  0  0  0  0  0  0  0
   -0.0694    2.4948   27.1005 C   0  0  0  0  0  0  0  0  0  0  0  0
    0.0376    3.6656   26.3395 C   0  0  0  0  0  0  0  0  0  0  0  0
   -1.1297    4.3656   26.0374 C   0  0  0  0  0  0  0  0  0  0  0  0
   -2.3585    3.9054   26.4840 C   0  0  0  0  0  0  0  0  0  0  0  0
   -2.4376    2.7445   27.2605 C   0  0  0  0  0  0  0  0  0  0  0  0
   -1.2771    2.0186   27.6019 C   0  0  0  0  0  0  0  0  0  0  0  0
   -5.1479   -0.5231   35.6860 N   0  0  0  0  0  0  0  0  0  0  0  0
   -6.3530   -0.0649   36.1526 C   0  0  0  0  0  0  0  0  0  0  0  0
   -6.3052   -0.1706   37.5207 C   0  0  0  0  0  0  0  0  0  0  0  0
   -7.4937    0.2606   38.6410 Cl  0  0  0  0  0  0  0  0  0  0  0  0
   -5.0483   -0.7256   37.7994 C   0  0  0  0  0  0  0  0  0  0  0  0
   -4.3531   -0.9782   36.6858 N   0  0  0  0  0  0  0  0  0  0  0  0
  1  2  1  0
  3  2  1  6
  3  4  1  0
  4  5  1  0
  5  6  1  0
  6  7  2  0
  6  8  1  0
  8  9  1  0
  9 10  1  0
 10 11  2  0
 11 12  1  0
 11 13  1  0
 13 14  1  0
 14 15  2  0
 15 16  1  0
 16 17  2  0
 17 18  1  0
 18 19  2  0
  3 20  1  0
 20 21  1  0
 21 22  2  0
 22 23  1  0
 22 24  1  0
 24 25  2  0
 19 10  1  0
 25 20  1  0
 19 14  1  0
M  END
>  <name>  (16) 
P60992

>  <HIPPO Compound ID>  (16) 
98246

>  <energy_score>  (16) 
-9.309123

>  <HIPPO Pose ID>  (16) 
60992

>  <inspiration_score>  (16) 
None

>  <ref_pdb>  (16) 
7go7-a

>  <inchikey>  (16) 
UZQFSNWWPCAEOE-HNNXBMFYSA-N

>  <alias>  (16) 
None

>  <distance_score>  (16) 
1.786951

>  <ref_mols>  (16) 
7goy-a,7gp2-a

>  <smiles>  (16) 
CC[C@@H](CNC(=O)CCc1c(C)[nH]c2ccccc12)n1cc(Cl)cn1

$$$$
P60995
     RDKit          3D

 25 27  0  0  0  0  0  0  0  0999 V2000
   -1.0541   -2.0879   29.4366 C   0  0  0  0  0  0  0  0  0  0  0  0
   -1.5884   -0.7294   29.0004 C   0  0  0  0  0  0  0  0  0  0  0  0
   -0.4855    0.3432   28.8748 C   0  0  2  0  0  0  0  0  0  0  0  0
    0.0569    0.7269   30.2702 C   0  0  0  0  0  0  0  0  0  0  0  0
    1.4917    0.5769   30.3726 N   0  0  0  0  0  0  0  0  0  0  0  0
    2.3452   -0.6046   30.9026 C   0  0  0  0  0  0  0  0  0  0  0  0
    2.0239   -1.6666   31.2656 O   0  0  0  0  0  0  0  0  0  0  0  0
    3.7983   -0.1323   30.9598 C   0  0  0  0  0  0  0  0  0  0  0  0
    4.6391   -0.4442   29.7122 C   0  0  1  0  0  0  0  0  0  0  0  0
    4.8488   -1.9586   29.5687 C   0  0  0  0  0  0  0  0  0  0  0  0
    4.1384    0.2195   28.4490 C   0  0  0  0  0  0  0  0  0  0  0  0
    3.7976   -0.4052   27.2630 C   0  0  0  0  0  0  0  0  0  0  0  0
    3.4302    0.5430   26.3477 N   0  0  0  0  0  0  0  0  0  0  0  0
    3.4335    1.7863   26.9383 C   0  0  0  0  0  0  0  0  0  0  0  0
    3.0506    3.0324   26.4235 C   0  0  0  0  0  0  0  0  0  0  0  0
    3.2537    4.1598   27.2224 C   0  0  0  0  0  0  0  0  0  0  0  0
    3.8200    4.0445   28.4875 C   0  0  0  0  0  0  0  0  0  0  0  0
    4.1772    2.7902   28.9964 C   0  0  0  0  0  0  0  0  0  0  0  0
    3.9593    1.6291   28.2220 C   0  0  0  0  0  0  0  0  0  0  0  0
   -0.9250    1.5445   28.1419 N   0  0  0  0  0  0  0  0  0  0  0  0
   -0.2013    2.6978   27.9822 C   0  0  0  0  0  0  0  0  0  0  0  0
   -0.9913    3.5600   27.2660 C   0  0  0  0  0  0  0  0  0  0  0  0
   -0.6458    5.1419   26.7859 Cl  0  0  0  0  0  0  0  0  0  0  0  0
   -2.1628    2.8373   26.9996 C   0  0  0  0  0  0  0  0  0  0  0  0
   -2.1152    1.5942   27.4950 N   0  0  0  0  0  0  0  0  0  0  0  0
  1  2  1  0
  3  2  1  1
  3  4  1  0
  4  5  1  0
  5  6  1  0
  6  7  2  0
  6  8  1  0
  8  9  1  0
  9 10  1  6
  9 11  1  0
 11 12  2  0
 12 13  1  0
 13 14  1  0
 14 15  2  0
 15 16  1  0
 16 17  2  0
 17 18  1  0
 18 19  2  0
  3 20  1  0
 20 21  1  0
 21 22  2  0
 22 23  1  0
 22 24  1  0
 24 25  2  0
 19 11  1  0
 25 20  1  0
 19 14  1  0
M  END
>  <name>  (17) 
P60995

>  <HIPPO Compound ID>  (17) 
98254

>  <energy_score>  (17) 
-25.506127

>  <HIPPO Pose ID>  (17) 
60995

>  <inspiration_score>  (17) 
None

>  <ref_pdb>  (17) 
7go7-a

>  <inchikey>  (17) 
WGPKUVLKFOMWBA-UKRRQHHQSA-N

>  <alias>  (17) 
None

>  <distance_score>  (17) 
1.190915

>  <ref_mols>  (17) 
7goy-a,7gp2-a

>  <smiles>  (17) 
CC[C@H](CNC(=O)C[C@@H](C)c1c[nH]c2ccccc12)n1cc(Cl)cn1

$$$$
P60997
     RDKit          3D

 25 27  0  0  0  0  0  0  0  0999 V2000
   -1.9401    7.7508   27.0276 C   0  0  0  0  0  0  0  0  0  0  0  0
   -1.3740    6.3829   26.7791 C   0  0  0  0  0  0  0  0  0  0  0  0
   -0.1426    6.2891   26.1381 C   0  0  0  0  0  0  0  0  0  0  0  0
    0.4572    5.0491   25.9514 C   0  0  0  0  0  0  0  0  0  0  0  0
   -0.1658    3.8853   26.4303 C   0  0  0  0  0  0  0  0  0  0  0  0
    0.2648    2.5391   26.5735 C   0  0  0  0  0  0  0  0  0  0  0  0
    1.6815    2.0705   26.3276 C   0  0  0  0  0  0  0  0  0  0  0  0
    2.7714    2.7570   27.1635 C   0  0  0  0  0  0  0  0  0  0  0  0
    2.9143    2.0643   28.5101 C   0  0  0  0  0  0  0  0  0  0  0  0
    3.7128    1.2432   28.7232 O   0  0  0  0  0  0  0  0  0  0  0  0
    1.7685    2.5998   29.3962 N   0  0  0  0  0  0  0  0  0  0  0  0
    1.3082    2.1691   30.6934 C   0  0  0  0  0  0  0  0  0  0  0  0
   -0.1999    1.9499   30.6790 C   0  0  0  0  0  0  0  0  0  0  0  0
   -0.6813    0.5830   30.7495 N   0  0  0  0  0  0  0  0  0  0  0  0
   -1.6813    0.3557   31.6348 N   0  0  0  0  0  0  0  0  0  0  0  0
   -1.9257   -0.9540   31.5297 C   0  0  0  0  0  0  0  0  0  0  0  0
   -2.9158   -1.6001   32.4167 C   0  0  0  0  0  0  0  0  0  0  0  0
   -1.1290   -1.5474   30.5343 C   0  0  0  0  0  0  0  0  0  0  0  0
   -1.0839   -3.1868   30.1198 Cl  0  0  0  0  0  0  0  0  0  0  0  0
   -0.3725   -0.5280   30.0021 C   0  0  0  0  0  0  0  0  0  0  0  0
    0.6185   -0.6067   28.9047 C   0  0  0  0  0  0  0  0  0  0  0  0
   -0.8479    1.8146   26.9676 C   0  0  0  0  0  0  0  0  0  0  0  0
   -1.8621    2.6978   27.2359 N   0  0  0  0  0  0  0  0  0  0  0  0
   -1.4365    3.9777   26.9742 C   0  0  0  0  0  0  0  0  0  0  0  0
   -2.0701    5.2125   27.1459 C   0  0  0  0  0  0  0  0  0  0  0  0
  1  2  1  0
  2  3  2  0
  3  4  1  0
  4  5  2  0
  5  6  1  0
  6  7  1  0
  7  8  1  0
  8  9  1  0
  9 10  2  0
  9 11  1  0
 11 12  1  0
 12 13  1  0
 13 14  1  0
 14 15  1  0
 15 16  2  0
 16 17  1  0
 16 18  1  0
 18 19  1  0
 18 20  2  0
 20 21  1  0
  6 22  2  0
 22 23  1  0
 23 24  1  0
 24 25  2  0
 25  2  1  0
 24  5  1  0
 20 14  1  0
M  END
>  <name>  (18) 
P60997

>  <HIPPO Compound ID>  (18) 
98259

>  <energy_score>  (18) 
-8.336748

>  <HIPPO Pose ID>  (18) 
60997

>  <inspiration_score>  (18) 
None

>  <ref_pdb>  (18) 
7go7-a

>  <inchikey>  (18) 
FTDYAUVODXFHPR-UHFFFAOYSA-N

>  <alias>  (18) 
None

>  <distance_score>  (18) 
1.583096

>  <ref_mols>  (18) 
7goy-a,7gp2-a

>  <smiles>  (18) 
Cc1ccc2c(CCC(=O)NCCn3nc(C)c(Cl)c3C)c[nH]c2c1

$$$$
P60998
     RDKit          3D

 25 27  0  0  0  0  0  0  0  0999 V2000
   -2.6917   -1.5042   32.1146 C   0  0  0  0  0  0  0  0  0  0  0  0
   -1.5580   -0.9936   31.3086 C   0  0  0  0  0  0  0  0  0  0  0  0
   -0.9828    0.1713   31.6206 N   0  0  0  0  0  0  0  0  0  0  0  0
    0.0880    0.2629   30.7857 N   0  0  0  0  0  0  0  0  0  0  0  0
    1.0118    1.3463   31.0897 C   0  0  0  0  0  0  0  0  0  0  0  0
    2.4090    1.3652   30.4673 C   0  0  0  0  0  0  0  0  0  0  0  0
    2.4653    2.0778   29.2117 N   0  0  0  0  0  0  0  0  0  0  0  0
    1.9702    3.4996   28.8377 C   0  0  0  0  0  0  0  0  0  0  0  0
    1.5115    4.3399   29.5047 O   0  0  0  0  0  0  0  0  0  0  0  0
    2.1742    3.6803   27.3330 C   0  0  0  0  0  0  0  0  0  0  0  0
    1.4191    2.6802   26.4599 C   0  0  0  0  0  0  0  0  0  0  0  0
   -0.0690    2.6878   26.6444 C   0  0  0  0  0  0  0  0  0  0  0  0
   -0.7339    2.0822   27.6897 C   0  0  0  0  0  0  0  0  0  0  0  0
   -2.0662    2.2650   27.5370 N   0  0  0  0  0  0  0  0  0  0  0  0
   -2.2953    2.9742   26.3928 C   0  0  0  0  0  0  0  0  0  0  0  0
   -3.5114    3.3530   25.8384 C   0  0  0  0  0  0  0  0  0  0  0  0
   -3.4915    4.0632   24.6414 C   0  0  0  0  0  0  0  0  0  0  0  0
   -2.2912    4.4211   24.0471 C   0  0  0  0  0  0  0  0  0  0  0  0
   -1.0566    4.0716   24.6253 C   0  0  0  0  0  0  0  0  0  0  0  0
    0.1972    4.5201   23.9226 C   0  0  0  0  0  0  0  0  0  0  0  0
   -1.0673    3.2931   25.8143 C   0  0  0  0  0  0  0  0  0  0  0  0
    0.0803   -0.7222   29.8241 C   0  0  0  0  0  0  0  0  0  0  0  0
    0.9868   -0.8593   28.6563 C   0  0  0  0  0  0  0  0  0  0  0  0
   -0.9206   -1.5879   30.2069 C   0  0  0  0  0  0  0  0  0  0  0  0
   -1.2727   -3.0831   29.5120 Cl  0  0  0  0  0  0  0  0  0  0  0  0
  1  2  1  0
  2  3  2  0
  3  4  1  0
  4  5  1  0
  5  6  1  0
  6  7  1  0
  7  8  1  0
  8  9  2  0
  8 10  1  0
 10 11  1  0
 11 12  1  0
 12 13  2  0
 13 14  1  0
 14 15  1  0
 15 16  2  0
 16 17  1  0
 17 18  2  0
 18 19  1  0
 19 20  1  0
 19 21  2  0
  4 22  1  0
 22 23  1  0
 22 24  2  0
 24 25  1  0
 24  2  1  0
 21 12  1  0
 21 15  1  0
M  END
>  <name>  (19) 
P60998

>  <HIPPO Compound ID>  (19) 
98261

>  <energy_score>  (19) 
-0.333163

>  <HIPPO Pose ID>  (19) 
60998

>  <inspiration_score>  (19) 
None

>  <ref_pdb>  (19) 
7go7-a

>  <inchikey>  (19) 
GJOUVGZWEXCUDE-UHFFFAOYSA-N

>  <alias>  (19) 
None

>  <distance_score>  (19) 
1.569694

>  <ref_mols>  (19) 
7goy-a,7gp2-a

>  <smiles>  (19) 
Cc1nn(CCNC(=O)CCc2c[nH]c3cccc(C)c23)c(C)c1Cl

$$$$
P60999
     RDKit          3D

 26 28  0  0  0  0  0  0  0  0999 V2000
   -2.1248   -1.7902   32.3595 C   0  0  0  0  0  0  0  0  0  0  0  0
   -1.4255   -1.6810   31.0563 C   0  0  0  0  0  0  0  0  0  0  0  0
   -0.8121   -2.6298   30.2668 C   0  0  0  0  0  0  0  0  0  0  0  0
   -0.5485   -4.2685   30.5996 Cl  0  0  0  0  0  0  0  0  0  0  0  0
   -0.4015   -1.9539   29.1082 C   0  0  0  0  0  0  0  0  0  0  0  0
   -0.6793   -0.6529   29.1704 N   0  0  0  0  0  0  0  0  0  0  0  0
   -1.2133   -0.4952   30.3985 N   0  0  0  0  0  0  0  0  0  0  0  0
   -1.4775    0.8414   30.8897 C   0  0  0  0  0  0  0  0  0  0  0  0
   -0.3053    1.4155   31.6821 C   0  0  0  0  0  0  0  0  0  0  0  0
    0.5973    2.1628   30.8476 N   0  0  0  0  0  0  0  0  0  0  0  0
    0.7117    3.6900   30.6032 C   0  0  0  0  0  0  0  0  0  0  0  0
    0.1426    4.5798   31.0998 O   0  0  0  0  0  0  0  0  0  0  0  0
    1.7677    3.9020   29.5083 C   0  0  0  0  0  0  0  0  0  0  0  0
    1.1294    4.3464   28.1719 C   0  0  2  0  0  0  0  0  0  0  0  0
    0.1629    3.3201   27.6095 C   0  0  0  0  0  0  0  0  0  0  0  0
    0.2472    1.9469   27.7041 C   0  0  0  0  0  0  0  0  0  0  0  0
   -0.9384    1.4161   27.2890 N   0  0  0  0  0  0  0  0  0  0  0  0
   -1.7042    2.3984   26.7276 C   0  0  0  0  0  0  0  0  0  0  0  0
   -2.9485    2.3228   26.1137 C   0  0  0  0  0  0  0  0  0  0  0  0
   -3.4585    3.4735   25.5129 C   0  0  0  0  0  0  0  0  0  0  0  0
   -2.7653    4.6738   25.5768 C   0  0  0  0  0  0  0  0  0  0  0  0
   -1.5690    4.7626   26.2872 C   0  0  0  0  0  0  0  0  0  0  0  0
   -1.0149    3.5990   26.8541 C   0  0  0  0  0  0  0  0  0  0  0  0
    2.1686    4.7928   27.1008 C   0  0  0  0  0  0  0  0  0  0  0  0
    2.8426    6.1141   27.4881 C   0  0  0  0  0  0  0  0  0  0  0  0
    3.2400    3.7417   26.7966 C   0  0  0  0  0  0  0  0  0  0  0  0
  1  2  1  0
  2  3  2  0
  3  4  1  0
  3  5  1  0
  5  6  2  0
  6  7  1  0
  7  8  1  0
  8  9  1  0
  9 10  1  0
 10 11  1  0
 11 12  2  0
 11 13  1  0
 14 13  1  1
 14 15  1  0
 15 16  2  0
 16 17  1  0
 17 18  1  0
 18 19  2  0
 19 20  1  0
 20 21  2  0
 21 22  1  0
 22 23  2  0
 14 24  1  0
 24 25  1  0
 24 26  1  0
  7  2  1  0
 23 15  1  0
 23 18  1  0
M  END
>  <name>  (20) 
P60999

>  <HIPPO Compound ID>  (20) 
98265

>  <energy_score>  (20) 
-39.360397

>  <HIPPO Pose ID>  (20) 
60999

>  <inspiration_score>  (20) 
None

>  <ref_pdb>  (20) 
7go7-a

>  <inchikey>  (20) 
DDAOLMIYIHNNPY-INIZCTEOSA-N

>  <alias>  (20) 
None

>  <distance_score>  (20) 
1.878624

>  <ref_mols>  (20) 
7goy-a,7gp2-a

>  <smiles>  (20) 
Cc1c(Cl)cnn1CCNC(=O)C[C@H](c1c[nH]c2ccccc12)C(C)C

$$$$
P61000
     RDKit          3D

 26 28  0  0  0  0  0  0  0  0999 V2000
    1.3411   -0.0017   28.1286 C   0  0  0  0  0  0  0  0  0  0  0  0
    0.3059    1.0209   27.8084 C   0  0  0  0  0  0  0  0  0  0  0  0
    0.7048    2.2373   27.3289 N   0  0  0  0  0  0  0  0  0  0  0  0
   -0.3697    2.9782   26.9293 C   0  0  0  0  0  0  0  0  0  0  0  0
   -0.4018    4.2363   26.3203 C   0  0  0  0  0  0  0  0  0  0  0  0
   -1.6373    4.7302   25.9088 C   0  0  0  0  0  0  0  0  0  0  0  0
   -2.7917    3.9898   26.1138 C   0  0  0  0  0  0  0  0  0  0  0  0
   -2.7428    2.7572   26.7732 C   0  0  0  0  0  0  0  0  0  0  0  0
   -1.5090    2.2290   27.2046 C   0  0  0  0  0  0  0  0  0  0  0  0
   -1.0784    1.0465   27.9187 C   0  0  0  0  0  0  0  0  0  0  0  0
   -1.9467    0.0308   28.6219 C   0  0  0  0  0  0  0  0  0  0  0  0
   -1.2331   -0.7802   29.7144 C   0  0  0  0  0  0  0  0  0  0  0  0
   -2.1658   -1.5498   30.6475 C   0  0  0  0  0  0  0  0  0  0  0  0
   -2.3714   -2.6937   30.5287 O   0  0  0  0  0  0  0  0  0  0  0  0
   -2.7245   -0.5279   31.6776 N   0  0  0  0  0  0  0  0  0  0  0  0
   -3.5196   -0.7133   32.7525 N   0  0  0  0  0  0  0  0  0  0  0  0
   -4.6210    0.2070   33.3694 C   0  0  0  0  0  0  0  0  0  0  0  0
   -5.0556    1.2276   32.9922 O   0  0  0  0  0  0  0  0  0  0  0  0
   -5.1425   -0.5005   34.6391 C   0  0  2  0  0  0  0  0  0  0  0  0
   -6.6301   -0.2327   34.8870 C   0  0  0  0  0  0  0  0  0  0  0  0
   -4.3345   -0.0944   35.7844 N   0  0  0  0  0  0  0  0  0  0  0  0
   -4.1215    1.1766   36.2410 C   0  0  0  0  0  0  0  0  0  0  0  0
   -3.2732    1.0573   37.3125 C   0  0  0  0  0  0  0  0  0  0  0  0
   -2.6319    2.2839   38.2806 Cl  0  0  0  0  0  0  0  0  0  0  0  0
   -3.0406   -0.3224   37.4400 C   0  0  0  0  0  0  0  0  0  0  0  0
   -3.7057   -1.0376   36.5233 N   0  0  0  0  0  0  0  0  0  0  0  0
  1  2  1  0
  2  3  1  0
  3  4  1  0
  4  5  2  0
  5  6  1  0
  6  7  2  0
  7  8  1  0
  8  9  2  0
  9 10  1  0
 10 11  1  0
 11 12  1  0
 12 13  1  0
 13 14  2  0
 13 15  1  0
 15 16  1  0
 16 17  1  0
 17 18  2  0
 17 19  1  0
 19 20  1  1
 19 21  1  0
 21 22  1  0
 22 23  2  0
 23 24  1  0
 23 25  1  0
 25 26  2  0
 10  2  2  0
 26 21  1  0
  9  4  1  0
M  END
>  <name>  (21) 
P61000

>  <HIPPO Compound ID>  (21) 
98267

>  <energy_score>  (21) 
-15.817277

>  <HIPPO Pose ID>  (21) 
61000

>  <inspiration_score>  (21) 
None

>  <ref_pdb>  (21) 
7go7-a

>  <inchikey>  (21) 
NUXRBIWSXWVGRR-LBPRGKRZSA-N

>  <alias>  (21) 
None

>  <distance_score>  (21) 
1.882409

>  <ref_mols>  (21) 
7goy-a,7gp2-a

>  <smiles>  (21) 
Cc1[nH]c2ccccc2c1CCC(=O)NNC(=O)[C@H](C)n1cc(Cl)cn1

$$$$
P61002
     RDKit          3D

 26 28  0  0  0  0  0  0  0  0999 V2000
   -3.0967    5.2509   24.4068 C   0  0  0  0  0  0  0  0  0  0  0  0
   -1.8493    4.3984   24.4148 C   0  0  0  0  0  0  0  0  0  0  0  0
   -1.6147    3.6169   25.7283 C   0  0  1  0  0  0  0  0  0  0  0  0
   -0.3874    2.7322   25.4924 C   0  0  0  0  0  0  0  0  0  0  0  0
   -0.3487    1.6106   26.3958 N   0  0  0  0  0  0  0  0  0  0  0  0
   -1.4738    0.6457   26.8513 C   0  0  0  0  0  0  0  0  0  0  0  0
   -2.5853    0.5642   26.5060 O   0  0  0  0  0  0  0  0  0  0  0  0
   -0.8594   -0.3259   27.8351 C   0  0  0  0  0  0  0  0  0  0  0  0
   -0.3455    0.4036   29.0542 C   0  0  0  0  0  0  0  0  0  0  0  0
   -0.4519   -0.4277   30.2745 C   0  0  0  0  0  0  0  0  0  0  0  0
    0.4968   -1.2968   30.7601 C   0  0  0  0  0  0  0  0  0  0  0  0
    0.0111   -1.8471   31.9132 N   0  0  0  0  0  0  0  0  0  0  0  0
   -1.2353   -1.3492   32.1932 C   0  0  0  0  0  0  0  0  0  0  0  0
   -2.0876   -1.6018   33.2721 C   0  0  0  0  0  0  0  0  0  0  0  0
   -3.2923   -0.8990   33.3447 C   0  0  0  0  0  0  0  0  0  0  0  0
   -4.0454   -1.1675   34.4553 O   0  0  0  0  0  0  0  0  0  0  0  0
   -5.3477   -0.6029   34.4999 C   0  0  0  0  0  0  0  0  0  0  0  0
   -3.6304    0.0027   32.3436 C   0  0  0  0  0  0  0  0  0  0  0  0
   -2.7744    0.2274   31.2557 C   0  0  0  0  0  0  0  0  0  0  0  0
   -1.5501   -0.4542   31.1807 C   0  0  0  0  0  0  0  0  0  0  0  0
   -1.2972    4.3877   26.9301 N   0  0  0  0  0  0  0  0  0  0  0  0
   -0.8103    5.6590   26.9770 C   0  0  0  0  0  0  0  0  0  0  0  0
   -0.1907    5.7820   28.1941 C   0  0  0  0  0  0  0  0  0  0  0  0
    0.6447    7.1188   28.8076 Cl  0  0  0  0  0  0  0  0  0  0  0  0
   -0.3654    4.5475   28.8295 C   0  0  0  0  0  0  0  0  0  0  0  0
   -1.0743    3.6991   28.0850 N   0  0  0  0  0  0  0  0  0  0  0  0
  1  2  1  0
  3  2  1  6
  3  4  1  0
  4  5  1  0
  5  6  1  0
  6  7  2  0
  6  8  1  0
  8  9  1  0
  9 10  1  0
 10 11  2  0
 11 12  1  0
 12 13  1  0
 13 14  2  0
 14 15  1  0
 15 16  1  0
 16 17  1  0
 15 18  2  0
 18 19  1  0
 19 20  2  0
  3 21  1  0
 21 22  1  0
 22 23  2  0
 23 24  1  0
 23 25  1  0
 25 26  2  0
 20 10  1  0
 26 21  1  0
 20 13  1  0
M  END
>  <name>  (22) 
P61002

>  <HIPPO Compound ID>  (22) 
98272

>  <energy_score>  (22) 
-14.936309

>  <HIPPO Pose ID>  (22) 
61002

>  <inspiration_score>  (22) 
None

>  <ref_pdb>  (22) 
7go7-a

>  <inchikey>  (22) 
CGXRXYUANBSLSI-HNNXBMFYSA-N

>  <alias>  (22) 
None

>  <distance_score>  (22) 
1.892943

>  <ref_mols>  (22) 
7goy-a,7gp2-a

>  <smiles>  (22) 
CC[C@@H](CNC(=O)CCc1c[nH]c2cc(OC)ccc12)n1cc(Cl)cn1

$$$$
P61003
     RDKit          3D

 26 29  0  0  0  0  0  0  0  0999 V2000
   -5.6215    2.3728   34.4288 C   0  0  0  0  0  0  0  0  0  0  0  0
   -5.1253    1.1161   33.7150 C   0  0  0  0  0  0  0  0  0  0  0  0
   -4.7579   -0.0262   34.6752 C   0  0  2  0  0  0  0  0  0  0  0  0
   -4.1020   -1.2240   33.9662 C   0  0  0  0  0  0  0  0  0  0  0  0
   -3.1748   -0.8493   32.9119 N   0  0  0  0  0  0  0  0  0  0  0  0
   -2.8272   -1.5624   31.5699 C   0  0  0  0  0  0  0  0  0  0  0  0
   -3.1770   -2.5950   31.1489 O   0  0  0  0  0  0  0  0  0  0  0  0
   -1.9587   -0.5416   30.8005 C   0  0  2  0  0  0  0  0  0  0  0  0
   -1.6694   -0.8630   29.3118 C   0  0  0  0  0  0  0  0  0  0  0  0
   -1.0245    0.3834   28.7944 C   0  0  0  0  0  0  0  0  0  0  0  0
   -0.0939    0.9765   29.6184 C   0  0  0  0  0  0  0  0  0  0  0  0
    0.3542    2.1099   29.0096 N   0  0  0  0  0  0  0  0  0  0  0  0
   -0.4870    2.4188   27.9622 C   0  0  0  0  0  0  0  0  0  0  0  0
   -0.5838    3.5988   27.2141 C   0  0  0  0  0  0  0  0  0  0  0  0
   -1.5998    3.6841   26.2604 C   0  0  0  0  0  0  0  0  0  0  0  0
   -2.4633    2.6183   26.0431 C   0  0  0  0  0  0  0  0  0  0  0  0
   -2.3239    1.4251   26.7712 C   0  0  0  0  0  0  0  0  0  0  0  0
   -1.3384    1.3240   27.7722 C   0  0  0  0  0  0  0  0  0  0  0  0
    0.1602    0.5005   30.9509 C   0  0  0  0  0  0  0  0  0  0  0  0
   -0.7018   -0.2443   31.5786 N   0  0  0  0  0  0  0  0  0  0  0  0
   -5.9089   -0.4072   35.4898 N   0  0  0  0  0  0  0  0  0  0  0  0
   -7.1828   -0.6630   35.0529 C   0  0  0  0  0  0  0  0  0  0  0  0
   -7.9848   -0.5942   36.1655 C   0  0  0  0  0  0  0  0  0  0  0  0
   -9.6613   -0.7817   36.2592 Cl  0  0  0  0  0  0  0  0  0  0  0  0
   -7.1052   -0.3505   37.2336 C   0  0  0  0  0  0  0  0  0  0  0  0
   -5.8321   -0.2756   36.8314 N   0  0  0  0  0  0  0  0  0  0  0  0
  1  2  1  0
  3  2  1  6
  3  4  1  0
  4  5  1  0
  5  6  1  0
  6  7  2  0
  8  6  1  1
  8  9  1  0
  9 10  1  0
 10 11  2  0
 11 12  1  0
 12 13  1  0
 13 14  2  0
 14 15  1  0
 15 16  2  0
 16 17  1  0
 17 18  2  0
 11 19  1  0
 19 20  2  0
  3 21  1  0
 21 22  1  0
 22 23  2  0
 23 24  1  0
 23 25  1  0
 25 26  2  0
 20  8  1  0
 26 21  1  0
 18 10  1  0
 18 13  1  0
M  END
>  <name>  (23) 
P61003

>  <HIPPO Compound ID>  (23) 
98279

>  <energy_score>  (23) 
-31.880191

>  <HIPPO Pose ID>  (23) 
61003

>  <inspiration_score>  (23) 
None

>  <ref_pdb>  (23) 
7go7-a

>  <inchikey>  (23) 
IZOFLBJXFUZQGE-DYVFJYSZSA-N

>  <alias>  (23) 
None

>  <distance_score>  (23) 
0.981923

>  <ref_mols>  (23) 
7goy-a,7gp2-a

>  <smiles>  (23) 
CC[C@H](CNC(=O)[C@@H]1Cc2c([nH]c3ccccc23)C=N1)n1cc(Cl)cn1

$$$$
P61007
     RDKit          3D

 26 28  0  0  0  0  0  0  0  0999 V2000
   -3.4166    4.7815   23.6348 C   0  0  0  0  0  0  0  0  0  0  0  0
   -3.2930    3.7376   24.5927 O   0  0  0  0  0  0  0  0  0  0  0  0
   -2.4554    3.9563   25.6445 C   0  0  0  0  0  0  0  0  0  0  0  0
   -2.0289    5.2094   26.0776 C   0  0  0  0  0  0  0  0  0  0  0  0
   -1.1573    5.3272   27.1635 C   0  0  0  0  0  0  0  0  0  0  0  0
   -0.6658    4.1617   27.7762 C   0  0  0  0  0  0  0  0  0  0  0  0
    0.2340    3.9152   28.8598 C   0  0  0  0  0  0  0  0  0  0  0  0
    0.8612    4.9338   29.7636 C   0  0  0  0  0  0  0  0  0  0  0  0
    1.3680    4.3851   31.1017 C   0  0  0  0  0  0  0  0  0  0  0  0
    0.2252    3.9292   32.0179 C   0  0  0  0  0  0  0  0  0  0  0  0
   -0.5053    4.6922   32.5169 O   0  0  0  0  0  0  0  0  0  0  0  0
    0.2959    2.3814   32.1324 N   0  0  0  0  0  0  0  0  0  0  0  0
   -0.5771    1.4502   32.8092 C   0  0  0  0  0  0  0  0  0  0  0  0
   -1.6856    0.8978   31.9132 C   0  0  0  0  0  0  0  0  0  0  0  0
   -1.2726   -0.2586   31.1384 N   0  0  0  0  0  0  0  0  0  0  0  0
   -0.6577   -0.0622   29.9640 N   0  0  0  0  0  0  0  0  0  0  0  0
   -0.3566   -1.2856   29.5223 C   0  0  0  0  0  0  0  0  0  0  0  0
    0.3721   -1.4318   28.2399 C   0  0  0  0  0  0  0  0  0  0  0  0
   -0.8143   -2.2688   30.4205 C   0  0  0  0  0  0  0  0  0  0  0  0
   -0.5695   -3.9398   30.2885 Cl  0  0  0  0  0  0  0  0  0  0  0  0
   -1.4620   -1.5826   31.4275 C   0  0  0  0  0  0  0  0  0  0  0  0
   -2.1949   -2.0593   32.6198 C   0  0  0  0  0  0  0  0  0  0  0  0
    0.4398    2.5549   28.8730 C   0  0  0  0  0  0  0  0  0  0  0  0
   -0.4921    1.9728   28.0624 N   0  0  0  0  0  0  0  0  0  0  0  0
   -1.1197    2.9237   27.3154 C   0  0  0  0  0  0  0  0  0  0  0  0
   -2.0511    2.7881   26.2918 C   0  0  0  0  0  0  0  0  0  0  0  0
  1  2  1  0
  2  3  1  0
  3  4  2  0
  4  5  1  0
  5  6  2  0
  6  7  1  0
  7  8  1  0
  8  9  1  0
  9 10  1  0
 10 11  2  0
 10 12  1  0
 12 13  1  0
 13 14  1  0
 14 15  1  0
 15 16  1  0
 16 17  2  0
 17 18  1  0
 17 19  1  0
 19 20  1  0
 19 21  2  0
 21 22  1  0
  7 23  2  0
 23 24  1  0
 24 25  1  0
 25 26  2  0
 26  3  1  0
 25  6  1  0
 21 15  1  0
M  END
>  <name>  (24) 
P61007

>  <HIPPO Compound ID>  (24) 
98281

>  <energy_score>  (24) 
-5.140163

>  <HIPPO Pose ID>  (24) 
61007

>  <inspiration_score>  (24) 
None

>  <ref_pdb>  (24) 
7go7-a

>  <inchikey>  (24) 
KYHZZWSHPAYKNP-UHFFFAOYSA-N

>  <alias>  (24) 
None

>  <distance_score>  (24) 
1.266092

>  <ref_mols>  (24) 
7goy-a,7gp2-a

>  <smiles>  (24) 
COc1ccc2c(CCC(=O)NCCn3nc(C)c(Cl)c3C)c[nH]c2c1

$$$$
P61010
     RDKit          3D

 26 29  0  0  0  0  0  0  0  0999 V2000
   -9.3000   -0.5132   36.1134 C   0  0  0  0  0  0  0  0  0  0  0  0
   -7.8198   -0.4147   36.1272 C   0  0  0  0  0  0  0  0  0  0  0  0
   -7.1310   -0.5758   34.9902 N   0  0  0  0  0  0  0  0  0  0  0  0
   -5.8579   -0.2976   35.3301 N   0  0  0  0  0  0  0  0  0  0  0  0
   -4.9105   -0.0037   34.2744 C   0  0  0  0  0  0  0  0  0  0  0  0
   -4.0750   -1.1889   33.8222 C   0  0  0  0  0  0  0  0  0  0  0  0
   -3.1529   -0.8047   32.7732 N   0  0  0  0  0  0  0  0  0  0  0  0
   -2.7477   -1.5437   31.4618 C   0  0  0  0  0  0  0  0  0  0  0  0
   -3.0385   -2.6057   31.0710 O   0  0  0  0  0  0  0  0  0  0  0  0
   -1.9208   -0.5019   30.6817 C   0  0  2  0  0  0  0  0  0  0  0  0
   -1.6586   -0.8141   29.1886 C   0  0  0  0  0  0  0  0  0  0  0  0
   -1.0153    0.4327   28.6728 C   0  0  0  0  0  0  0  0  0  0  0  0
   -0.0661    1.0144   29.4835 C   0  0  0  0  0  0  0  0  0  0  0  0
    0.3772    2.1497   28.8756 N   0  0  0  0  0  0  0  0  0  0  0  0
   -0.4857    2.4735   27.8509 C   0  0  0  0  0  0  0  0  0  0  0  0
   -0.5917    3.6603   27.1158 C   0  0  0  0  0  0  0  0  0  0  0  0
   -1.6263    3.7583   26.1835 C   0  0  0  0  0  0  0  0  0  0  0  0
   -2.5012    2.6998   25.9760 C   0  0  0  0  0  0  0  0  0  0  0  0
   -2.3557    1.5016   26.6934 C   0  0  0  0  0  0  0  0  0  0  0  0
   -1.3475    1.3856   27.6693 C   0  0  0  0  0  0  0  0  0  0  0  0
    0.2070    0.5312   30.8081 C   0  0  0  0  0  0  0  0  0  0  0  0
   -0.6522   -0.2081   31.4438 N   0  0  0  0  0  0  0  0  0  0  0  0
   -5.6833   -0.1234   36.6816 C   0  0  0  0  0  0  0  0  0  0  0  0
   -4.3650    0.1162   37.3182 C   0  0  0  0  0  0  0  0  0  0  0  0
   -6.9549   -0.1598   37.2161 C   0  0  0  0  0  0  0  0  0  0  0  0
   -7.4120    0.0657   38.8332 Cl  0  0  0  0  0  0  0  0  0  0  0  0
  1  2  1  0
  2  3  2  0
  3  4  1  0
  4  5  1  0
  5  6  1  0
  6  7  1  0
  7  8  1  0
  8  9  2  0
 10  8  1  1
 10 11  1  0
 11 12  1  0
 12 13  2  0
 13 14  1  0
 14 15  1  0
 15 16  2  0
 16 17  1  0
 17 18  2  0
 18 19  1  0
 19 20  2  0
 13 21  1  0
 21 22  2  0
  4 23  1  0
 23 24  1  0
 23 25  2  0
 25 26  1  0
 25  2  1  0
 22 10  1  0
 20 12  1  0
 20 15  1  0
M  END
>  <name>  (25) 
P61010

>  <HIPPO Compound ID>  (25) 
98286

>  <energy_score>  (25) 
-11.010437

>  <HIPPO Pose ID>  (25) 
61010

>  <inspiration_score>  (25) 
None

>  <ref_pdb>  (25) 
7go7-a

>  <inchikey>  (25) 
QGKMVLTVMMPCQQ-INIZCTEOSA-N

>  <alias>  (25) 
None

>  <distance_score>  (25) 
1.029847

>  <ref_mols>  (25) 
7goy-a,7gp2-a

>  <smiles>  (25) 
Cc1nn(CCNC(=O)[C@@H]2Cc3c([nH]c4ccccc34)C=N2)c(C)c1Cl

$$$$
P61012
     RDKit          3D

 26 28  0  0  0  0  0  0  0  0999 V2000
   -1.2280   -1.4710   28.9978 C   0  0  0  0  0  0  0  0  0  0  0  0
   -0.2955   -0.2698   29.1349 C   0  0  2  0  0  0  0  0  0  0  0  0
   -0.0705    0.0773   30.6157 C   0  0  0  0  0  0  0  0  0  0  0  0
    0.9808   -0.2410   31.1007 O   0  0  0  0  0  0  0  0  0  0  0  0
   -1.2447    0.6687   31.2155 N   0  0  0  0  0  0  0  0  0  0  0  0
   -1.5320    0.9515   32.5053 N   0  0  0  0  0  0  0  0  0  0  0  0
   -2.7958    1.1386   33.1725 C   0  0  0  0  0  0  0  0  0  0  0  0
   -3.9136    1.1697   32.7393 O   0  0  0  0  0  0  0  0  0  0  0  0
   -2.5613    1.3718   34.6577 C   0  0  0  0  0  0  0  0  0  0  0  0
   -2.1485    2.8184   34.9068 C   0  0  0  0  0  0  0  0  0  0  0  0
   -1.8657    3.0746   36.3510 C   0  0  0  0  0  0  0  0  0  0  0  0
   -2.7766    3.5018   37.2971 C   0  0  0  0  0  0  0  0  0  0  0  0
   -2.1312    3.6120   38.4991 N   0  0  0  0  0  0  0  0  0  0  0  0
   -0.8093    3.2588   38.3615 C   0  0  0  0  0  0  0  0  0  0  0  0
    0.2157    3.2170   39.3158 C   0  0  0  0  0  0  0  0  0  0  0  0
    1.4821    2.8179   38.8811 C   0  0  0  0  0  0  0  0  0  0  0  0
    2.7763    2.7486   40.0165 Cl  0  0  0  0  0  0  0  0  0  0  0  0
    1.7189    2.4767   37.5527 C   0  0  0  0  0  0  0  0  0  0  0  0
    0.6812    2.5247   36.6129 C   0  0  0  0  0  0  0  0  0  0  0  0
   -0.6097    2.9214   37.0219 C   0  0  0  0  0  0  0  0  0  0  0  0
   -0.7317    0.8861   28.3626 N   0  0  0  0  0  0  0  0  0  0  0  0
    0.0091    1.5936   27.4592 C   0  0  0  0  0  0  0  0  0  0  0  0
   -0.8433    2.5207   26.9138 C   0  0  0  0  0  0  0  0  0  0  0  0
   -0.5202    3.6459   25.6961 Cl  0  0  0  0  0  0  0  0  0  0  0  0
   -2.0674    2.3203   27.5717 C   0  0  0  0  0  0  0  0  0  0  0  0
   -2.0002    1.3361   28.4804 N   0  0  0  0  0  0  0  0  0  0  0  0
  2  1  1  1
  2  3  1  0
  3  4  2  0
  3  5  1  0
  5  6  1  0
  6  7  1  0
  7  8  2  0
  7  9  1  0
  9 10  1  0
 10 11  1  0
 11 12  2  0
 12 13  1  0
 13 14  1  0
 14 15  2  0
 15 16  1  0
 16 17  1  0
 16 18  2  0
 18 19  1  0
 19 20  2  0
  2 21  1  0
 21 22  1  0
 22 23  2  0
 23 24  1  0
 23 25  1  0
 25 26  2  0
 20 11  1  0
 26 21  1  0
 20 14  1  0
M  END
>  <name>  (26) 
P61012

>  <HIPPO Compound ID>  (26) 
98288

>  <energy_score>  (26) 
-20.822833

>  <HIPPO Pose ID>  (26) 
61012

>  <inspiration_score>  (26) 
None

>  <ref_pdb>  (26) 
7go7-a

>  <inchikey>  (26) 
PXZZVFZAQBATNJ-SNVBAGLBSA-N

>  <alias>  (26) 
None

>  <distance_score>  (26) 
1.620757

>  <ref_mols>  (26) 
7goy-a,7gp2-a

>  <smiles>  (26) 
C[C@H](C(=O)NNC(=O)CCc1c[nH]c2cc(Cl)ccc12)n1cc(Cl)cn1

$$$$
P61014
     RDKit          3D

 26 28  0  0  0  0  0  0  0  0999 V2000
   -3.3534    3.4133   25.1204 C   0  0  0  0  0  0  0  0  0  0  0  0
   -3.3591    2.5839   26.4068 C   0  0  0  0  0  0  0  0  0  0  0  0
   -2.0656    1.8258   26.6953 C   0  0  2  0  0  0  0  0  0  0  0  0
   -2.1195    0.7702   27.8229 C   0  0  0  0  0  0  0  0  0  0  0  0
   -2.1770    1.1523   29.3220 C   0  0  0  0  0  0  0  0  0  0  0  0
   -3.1126    0.8932   29.9660 O   0  0  0  0  0  0  0  0  0  0  0  0
   -0.8260    1.7740   29.7283 N   0  0  0  0  0  0  0  0  0  0  0  0
   -0.3054    2.1208   31.0329 C   0  0  0  0  0  0  0  0  0  0  0  0
   -0.4110    0.9378   32.0067 C   0  0  0  0  0  0  0  0  0  0  0  0
   -0.1010   -0.3156   31.3315 N   0  0  0  0  0  0  0  0  0  0  0  0
    0.9400   -0.3122   30.4656 N   0  0  0  0  0  0  0  0  0  0  0  0
    0.6242   -1.2723   29.5931 C   0  0  0  0  0  0  0  0  0  0  0  0
    1.3524   -1.3988   28.3111 C   0  0  0  0  0  0  0  0  0  0  0  0
   -0.4396   -2.0587   30.0719 C   0  0  0  0  0  0  0  0  0  0  0  0
   -0.9908   -3.4613   29.3232 Cl  0  0  0  0  0  0  0  0  0  0  0  0
   -0.9058   -1.4253   31.2045 C   0  0  0  0  0  0  0  0  0  0  0  0
   -2.0586   -1.7250   32.0902 C   0  0  0  0  0  0  0  0  0  0  0  0
   -0.8323    2.6496   26.8212 C   0  0  0  0  0  0  0  0  0  0  0  0
    0.4279    2.0812   26.7888 C   0  0  0  0  0  0  0  0  0  0  0  0
    1.3433    3.0295   27.1074 N   0  0  0  0  0  0  0  0  0  0  0  0
    0.7182    4.2308   27.2967 C   0  0  0  0  0  0  0  0  0  0  0  0
    1.2784    5.4683   27.6175 C   0  0  0  0  0  0  0  0  0  0  0  0
    0.4350    6.5697   27.7349 C   0  0  0  0  0  0  0  0  0  0  0  0
   -0.9312    6.4209   27.5645 C   0  0  0  0  0  0  0  0  0  0  0  0
   -1.4849    5.1655   27.2795 C   0  0  0  0  0  0  0  0  0  0  0  0
   -0.6504    4.0407   27.1078 C   0  0  0  0  0  0  0  0  0  0  0  0
  1  2  1  0
  3  2  1  1
  3  4  1  0
  4  5  1  0
  5  6  2  0
  5  7  1  0
  7  8  1  0
  8  9  1  0
  9 10  1  0
 10 11  1  0
 11 12  2  0
 12 13  1  0
 12 14  1  0
 14 15  1  0
 14 16  2  0
 16 17  1  0
  3 18  1  0
 18 19  2  0
 19 20  1  0
 20 21  1  0
 21 22  2  0
 22 23  1  0
 23 24  2  0
 24 25  1  0
 25 26  2  0
 16 10  1  0
 26 18  1  0
 26 21  1  0
M  END
>  <name>  (27) 
P61014

>  <HIPPO Compound ID>  (27) 
98292

>  <energy_score>  (27) 
-9.280984

>  <HIPPO Pose ID>  (27) 
61014

>  <inspiration_score>  (27) 
None

>  <ref_pdb>  (27) 
7go7-a

>  <inchikey>  (27) 
YHBHTXNGWLIAGE-OAHLLOKOSA-N

>  <alias>  (27) 
None

>  <distance_score>  (27) 
1.942516

>  <ref_mols>  (27) 
7goy-a,7gp2-a

>  <smiles>  (27) 
CC[C@H](CC(=O)NCCn1nc(C)c(Cl)c1C)c1c[nH]c2ccccc12

$$$$
P61016
     RDKit          3D

 27 29  0  0  0  0  0  0  0  0999 V2000
    0.2442    4.0894   32.2461 C   0  0  0  0  0  0  0  0  0  0  0  0
   -0.0628    2.5943   32.2944 C   0  0  0  0  0  0  0  0  0  0  0  0
    0.1734    1.8718   30.9345 C   0  0  1  0  0  0  0  0  0  0  0  0
    1.6840    1.8736   30.6367 C   0  0  0  0  0  0  0  0  0  0  0  0
    1.9558    2.4005   29.3239 N   0  0  0  0  0  0  0  0  0  0  0  0
    3.1214    2.1191   28.3528 C   0  0  0  0  0  0  0  0  0  0  0  0
    4.0828    1.4769   28.4936 O   0  0  0  0  0  0  0  0  0  0  0  0
    2.7688    2.8281   27.0556 C   0  0  0  0  0  0  0  0  0  0  0  0
    1.6491    2.0931   26.3082 C   0  0  0  0  0  0  0  0  0  0  0  0
    0.2446    2.5646   26.6010 C   0  0  0  0  0  0  0  0  0  0  0  0
   -0.8527    1.8494   27.0491 C   0  0  0  0  0  0  0  0  0  0  0  0
   -1.8581    2.7381   27.3278 N   0  0  0  0  0  0  0  0  0  0  0  0
   -1.4456    4.0106   27.0162 C   0  0  0  0  0  0  0  0  0  0  0  0
   -2.0788    5.2474   27.1685 C   0  0  0  0  0  0  0  0  0  0  0  0
   -1.3951    6.4098   26.7569 C   0  0  0  0  0  0  0  0  0  0  0  0
   -1.9521    7.7827   26.9983 C   0  0  0  0  0  0  0  0  0  0  0  0
   -0.1847    6.3018   26.0797 C   0  0  0  0  0  0  0  0  0  0  0  0
    0.4103    5.0579   25.9037 C   0  0  0  0  0  0  0  0  0  0  0  0
   -0.1922    3.9065   26.4370 C   0  0  0  0  0  0  0  0  0  0  0  0
   -0.4597    0.5439   30.8719 N   0  0  0  0  0  0  0  0  0  0  0  0
   -1.5046    0.3121   31.7186 N   0  0  0  0  0  0  0  0  0  0  0  0
   -1.8418   -0.9651   31.5044 C   0  0  0  0  0  0  0  0  0  0  0  0
   -2.8784   -1.6088   32.3417 C   0  0  0  0  0  0  0  0  0  0  0  0
   -1.0936   -1.5315   30.4574 C   0  0  0  0  0  0  0  0  0  0  0  0
   -1.1740   -3.1192   29.8889 Cl  0  0  0  0  0  0  0  0  0  0  0  0
   -0.2746   -0.5241   30.0310 C   0  0  0  0  0  0  0  0  0  0  0  0
    0.8233   -0.5694   28.7379 Cl  0  0  0  0  0  0  0  0  0  0  0  0
  1  2  1  0
  3  2  1  1
  3  4  1  0
  4  5  1  0
  5  6  1  0
  6  7  2  0
  6  8  1  0
  8  9  1  0
  9 10  1  0
 10 11  2  0
 11 12  1  0
 12 13  1  0
 13 14  2  0
 14 15  1  0
 15 16  1  0
 15 17  2  0
 17 18  1  0
 18 19  2  0
  3 20  1  0
 20 21  1  0
 21 22  2  0
 22 23  1  0
 22 24  1  0
 24 25  1  0
 24 26  2  0
 26 27  1  0
 19 10  1  0
 26 20  1  0
 19 13  1  0
M  END
>  <name>  (28) 
P61016

>  <HIPPO Compound ID>  (28) 
98300

>  <energy_score>  (28) 
-20.342519

>  <HIPPO Pose ID>  (28) 
61016

>  <inspiration_score>  (28) 
None

>  <ref_pdb>  (28) 
7go7-a

>  <inchikey>  (28) 
AFTNSCCKZDGNTM-HNNXBMFYSA-N

>  <alias>  (28) 
None

>  <distance_score>  (28) 
1.815016

>  <ref_mols>  (28) 
7goy-a,7gp2-a

>  <smiles>  (28) 
CC[C@@H](CNC(=O)CCc1c[nH]c2cc(C)ccc12)n1nc(C)c(Cl)c1Cl

$$$$
P61018
     RDKit          3D

 27 29  0  0  0  0  0  0  0  0999 V2000
    0.0749   -1.0514   28.2137 C   0  0  0  0  0  0  0  0  0  0  0  0
   -1.3043   -0.6379   28.7027 C   0  0  0  0  0  0  0  0  0  0  0  0
   -1.4817    0.8435   29.0919 C   0  0  1  0  0  0  0  0  0  0  0  0
   -0.7311    1.2210   30.3869 C   0  0  0  0  0  0  0  0  0  0  0  0
   -1.3841    1.3383   31.3883 O   0  0  0  0  0  0  0  0  0  0  0  0
    0.6916    1.3222   30.1742 N   0  0  0  0  0  0  0  0  0  0  0  0
    1.6862    1.6625   31.0128 N   0  0  0  0  0  0  0  0  0  0  0  0
    3.0948    1.8632   30.7754 C   0  0  0  0  0  0  0  0  0  0  0  0
    3.7508    1.7018   29.7888 O   0  0  0  0  0  0  0  0  0  0  0  0
    3.7361    2.3357   32.0776 C   0  0  0  0  0  0  0  0  0  0  0  0
    5.2281    2.6169   31.9138 C   0  0  0  0  0  0  0  0  0  0  0  0
    5.8461    3.0856   33.1940 C   0  0  0  0  0  0  0  0  0  0  0  0
    6.0298    4.3991   33.5793 C   0  0  0  0  0  0  0  0  0  0  0  0
    6.6234    4.4086   34.8124 N   0  0  0  0  0  0  0  0  0  0  0  0
    6.8271    3.1212   35.2509 C   0  0  0  0  0  0  0  0  0  0  0  0
    7.3934    2.6536   36.4441 C   0  0  0  0  0  0  0  0  0  0  0  0
    7.4768    1.2692   36.6158 C   0  0  0  0  0  0  0  0  0  0  0  0
    8.1635    0.6432   38.0672 Cl  0  0  0  0  0  0  0  0  0  0  0  0
    7.0181    0.3876   35.6412 C   0  0  0  0  0  0  0  0  0  0  0  0
    6.4551    0.8744   34.4548 C   0  0  0  0  0  0  0  0  0  0  0  0
    6.3547    2.2671   34.2532 C   0  0  0  0  0  0  0  0  0  0  0  0
   -1.3571    1.8125   27.9969 N   0  0  0  0  0  0  0  0  0  0  0  0
   -0.7425    3.0365   28.0009 C   0  0  0  0  0  0  0  0  0  0  0  0
   -1.1582    3.6829   26.8635 C   0  0  0  0  0  0  0  0  0  0  0  0
   -0.7781    5.2466   26.3502 Cl  0  0  0  0  0  0  0  0  0  0  0  0
   -2.0031    2.7717   26.2181 C   0  0  0  0  0  0  0  0  0  0  0  0
   -2.0747    1.6030   26.8641 N   0  0  0  0  0  0  0  0  0  0  0  0
  1  2  1  0
  3  2  1  6
  3  4  1  0
  4  5  2  0
  4  6  1  0
  6  7  1  0
  7  8  1  0
  8  9  2  0
  8 10  1  0
 10 11  1  0
 11 12  1  0
 12 13  2  0
 13 14  1  0
 14 15  1  0
 15 16  2  0
 16 17  1  0
 17 18  1  0
 17 19  2  0
 19 20  1  0
 20 21  2  0
  3 22  1  0
 22 23  1  0
 23 24  2  0
 24 25  1  0
 24 26  1  0
 26 27  2  0
 21 12  1  0
 27 22  1  0
 21 15  1  0
M  END
>  <name>  (29) 
P61018

>  <HIPPO Compound ID>  (29) 
98308

>  <energy_score>  (29) 
-46.936041

>  <HIPPO Pose ID>  (29) 
61018

>  <inspiration_score>  (29) 
None

>  <ref_pdb>  (29) 
7go7-a

>  <inchikey>  (29) 
AZPDXDOSIKASMR-INIZCTEOSA-N

>  <alias>  (29) 
None

>  <distance_score>  (29) 
1.051995

>  <ref_mols>  (29) 
7goy-a,7gp2-a

>  <smiles>  (29) 
CC[C@@H](C(=O)NNC(=O)CCc1c[nH]c2cc(Cl)ccc12)n1cc(Cl)cn1

$$$$
P61019
     RDKit          3D

 27 29  0  0  0  0  0  0  0  0999 V2000
    2.5839    2.3087   28.2050 O   0  0  0  0  0  0  0  0  0  0  0  0
    2.2314    2.6109   29.2736 C   0  0  0  0  0  0  0  0  0  0  0  0
    1.4239    3.8691   29.5812 C   0  0  0  0  0  0  0  0  0  0  0  0
    0.7783    4.4505   28.3300 C   0  0  0  0  0  0  0  0  0  0  0  0
   -0.3851    3.6730   27.7786 C   0  0  0  0  0  0  0  0  0  0  0  0
   -0.9059    2.4623   28.1912 C   0  0  0  0  0  0  0  0  0  0  0  0
   -1.9802    2.1554   27.3967 N   0  0  0  0  0  0  0  0  0  0  0  0
   -2.1638    3.1358   26.4493 C   0  0  0  0  0  0  0  0  0  0  0  0
   -3.1205    3.2761   25.4347 C   0  0  0  0  0  0  0  0  0  0  0  0
   -3.0013    4.3793   24.5776 C   0  0  0  0  0  0  0  0  0  0  0  0
   -4.0602    4.5628   23.2346 Cl  0  0  0  0  0  0  0  0  0  0  0  0
   -2.0169    5.3394   24.7614 C   0  0  0  0  0  0  0  0  0  0  0  0
   -1.1098    5.2110   25.8097 C   0  0  0  0  0  0  0  0  0  0  0  0
   -1.1682    4.0876   26.6573 C   0  0  0  0  0  0  0  0  0  0  0  0
    2.4196    1.8923   30.6328 N   0  0  0  0  0  0  0  0  0  0  0  0
    2.9973    0.6092   30.9399 C   0  0  0  0  0  0  0  0  0  0  0  0
    2.0742   -0.2818   31.7603 C   0  0  0  0  0  0  0  0  0  0  0  0
    0.7468   -0.4941   31.2091 N   0  0  0  0  0  0  0  0  0  0  0  0
    0.4055   -0.8140   29.9324 C   0  0  0  0  0  0  0  0  0  0  0  0
   -0.9301   -1.1272   29.9656 C   0  0  0  0  0  0  0  0  0  0  0  0
   -1.8569   -1.6026   28.6421 Cl  0  0  0  0  0  0  0  0  0  0  0  0
   -1.3303   -0.9725   31.3153 C   0  0  0  0  0  0  0  0  0  0  0  0
   -2.6821   -1.2280   31.9075 C   0  0  0  0  0  0  0  0  0  0  0  0
   -2.6970   -1.1797   33.2663 F   0  0  0  0  0  0  0  0  0  0  0  0
   -3.1918   -2.4435   31.5555 F   0  0  0  0  0  0  0  0  0  0  0  0
   -3.5761   -0.2859   31.5023 F   0  0  0  0  0  0  0  0  0  0  0  0
   -0.3005   -0.5130   32.0572 N   0  0  0  0  0  0  0  0  0  0  0  0
  1  2  2  0
  2  3  1  0
  3  4  1  0
  4  5  1  0
  5  6  2  0
  6  7  1  0
  7  8  1  0
  8  9  2  0
  9 10  1  0
 10 11  1  0
 10 12  2  0
 12 13  1  0
 13 14  2  0
  2 15  1  0
 15 16  1  0
 16 17  1  0
 17 18  1  0
 18 19  1  0
 19 20  2  0
 20 21  1  0
 20 22  1  0
 22 23  1  0
 23 24  1  0
 23 25  1  0
 23 26  1  0
 22 27  2  0
 14  5  1  0
 27 18  1  0
 14  8  1  0
M  END
>  <name>  (30) 
P61019

>  <HIPPO Compound ID>  (30) 
98310

>  <energy_score>  (30) 
-7.961655

>  <HIPPO Pose ID>  (30) 
61019

>  <inspiration_score>  (30) 
None

>  <ref_pdb>  (30) 
7go7-a

>  <inchikey>  (30) 
IJLGAHLKABGGQR-UHFFFAOYSA-N

>  <alias>  (30) 
None

>  <distance_score>  (30) 
1.088353

>  <ref_mols>  (30) 
7goy-a,7gp2-a

>  <smiles>  (30) 
O=C(CCc1c[nH]c2cc(Cl)ccc12)NCCn1cc(Cl)c(C(F)(F)F)n1

$$$$
P61020
     RDKit          3D

 27 29  0  0  0  0  0  0  0  0999 V2000
    2.3576    4.6582   24.7447 C   0  0  0  0  0  0  0  0  0  0  0  0
    1.9709    5.0030   26.1776 C   0  0  0  0  0  0  0  0  0  0  0  0
    1.7022    3.7935   27.0941 C   0  0  2  0  0  0  0  0  0  0  0  0
    2.8424    2.7447   26.9743 C   0  0  0  0  0  0  0  0  0  0  0  0
    2.9541    1.9816   28.2891 C   0  0  0  0  0  0  0  0  0  0  0  0
    3.2997    2.4957   29.2795 O   0  0  0  0  0  0  0  0  0  0  0  0
    2.4411    0.5398   28.0305 N   0  0  0  0  0  0  0  0  0  0  0  0
    2.1787   -0.4558   28.8865 N   0  0  0  0  0  0  0  0  0  0  0  0
    1.9124   -1.9682   28.6266 C   0  0  0  0  0  0  0  0  0  0  0  0
    1.9588   -2.5851   27.6362 O   0  0  0  0  0  0  0  0  0  0  0  0
    1.4447   -2.5611   29.9393 C   0  0  0  0  0  0  0  0  0  0  0  0
    0.1576   -1.9990   30.3528 N   0  0  0  0  0  0  0  0  0  0  0  0
   -0.6472   -1.1156   29.6872 C   0  0  0  0  0  0  0  0  0  0  0  0
   -1.5574   -0.6843   30.6120 C   0  0  0  0  0  0  0  0  0  0  0  0
   -2.6378    0.5916   30.4858 Cl  0  0  0  0  0  0  0  0  0  0  0  0
   -1.3794   -1.5087   31.7330 C   0  0  0  0  0  0  0  0  0  0  0  0
   -2.1998   -1.5618   32.9635 C   0  0  0  0  0  0  0  0  0  0  0  0
   -0.2969   -2.2817   31.5915 N   0  0  0  0  0  0  0  0  0  0  0  0
    0.2837    3.1905   27.0355 C   0  0  0  0  0  0  0  0  0  0  0  0
   -0.2007    2.3010   27.9869 C   0  0  0  0  0  0  0  0  0  0  0  0
   -1.5053    2.0230   27.7296 N   0  0  0  0  0  0  0  0  0  0  0  0
   -1.9284    2.7677   26.6677 C   0  0  0  0  0  0  0  0  0  0  0  0
   -3.2091    2.8750   26.1269 C   0  0  0  0  0  0  0  0  0  0  0  0
   -3.4045    3.7171   25.0338 C   0  0  0  0  0  0  0  0  0  0  0  0
   -2.3519    4.4418   24.5070 C   0  0  0  0  0  0  0  0  0  0  0  0
   -1.0809    4.3436   25.0785 C   0  0  0  0  0  0  0  0  0  0  0  0
   -0.8389    3.4911   26.1810 C   0  0  0  0  0  0  0  0  0  0  0  0
  1  2  1  0
  3  2  1  6
  3  4  1  0
  4  5  1  0
  5  6  2  0
  5  7  1  0
  7  8  1  0
  8  9  1  0
  9 10  2  0
  9 11  1  0
 11 12  1  0
 12 13  1  0
 13 14  2  0
 14 15  1  0
 14 16  1  0
 16 17  1  0
 16 18  2  0
  3 19  1  0
 19 20  2  0
 20 21  1  0
 21 22  1  0
 22 23  2  0
 23 24  1  0
 24 25  2  0
 25 26  1  0
 26 27  2  0
 18 12  1  0
 27 19  1  0
 27 22  1  0
M  END
>  <name>  (31) 
P61020

>  <HIPPO Compound ID>  (31) 
98312

>  <energy_score>  (31) 
-14.466277

>  <HIPPO Pose ID>  (31) 
61020

>  <inspiration_score>  (31) 
None

>  <ref_pdb>  (31) 
7go7-a

>  <inchikey>  (31) 
QLHQBRBRYRSQRE-CYBMUJFWSA-N

>  <alias>  (31) 
None

>  <distance_score>  (31) 
1.970413

>  <ref_mols>  (31) 
7goy-a,7gp2-a

>  <smiles>  (31) 
CC[C@H](CC(=O)NNC(=O)Cn1cc(Cl)c(C)n1)c1c[nH]c2ccccc12

$$$$
P61021
     RDKit          3D

 27 29  0  0  0  0  0  0  0  0999 V2000
   -2.4114   -1.5871   32.6700 C   0  0  0  0  0  0  0  0  0  0  0  0
   -1.6276   -1.2223   31.4680 C   0  0  0  0  0  0  0  0  0  0  0  0
   -1.5761    0.0532   31.0590 N   0  0  0  0  0  0  0  0  0  0  0  0
   -0.8898   -0.0135   29.8997 N   0  0  0  0  0  0  0  0  0  0  0  0
   -0.9130    1.1247   28.9981 C   0  0  0  0  0  0  0  0  0  0  0  0
   -2.3154    1.2598   28.4428 C   0  0  0  0  0  0  0  0  0  0  0  0
   -2.5660    2.3912   27.5905 N   0  0  0  0  0  0  0  0  0  0  0  0
   -3.4784    2.5314   26.3546 C   0  0  0  0  0  0  0  0  0  0  0  0
   -4.2259    1.7772   25.8806 O   0  0  0  0  0  0  0  0  0  0  0  0
   -3.2084    3.8655   25.6691 C   0  0  0  0  0  0  0  0  0  0  0  0
   -1.8803    3.7635   24.8937 C   0  0  2  0  0  0  0  0  0  0  0  0
   -0.7262    3.8383   25.8580 C   0  0  0  0  0  0  0  0  0  0  0  0
    0.1878    2.8313   26.0846 C   0  0  0  0  0  0  0  0  0  0  0  0
    0.9414    3.1409   27.1743 N   0  0  0  0  0  0  0  0  0  0  0  0
    0.5438    4.3494   27.6779 C   0  0  0  0  0  0  0  0  0  0  0  0
    0.9954    5.0501   28.7958 C   0  0  0  0  0  0  0  0  0  0  0  0
    2.3156    4.3313   29.9404 Br  0  0  0  0  0  0  0  0  0  0  0  0
    0.4689    6.3152   29.0470 C   0  0  0  0  0  0  0  0  0  0  0  0
   -0.5156    6.8400   28.2180 C   0  0  0  0  0  0  0  0  0  0  0  0
   -1.0133    6.1003   27.1384 C   0  0  0  0  0  0  0  0  0  0  0  0
   -0.4542    4.8450   26.8350 C   0  0  0  0  0  0  0  0  0  0  0  0
   -1.8005    4.6534   23.6274 C   0  0  0  0  0  0  0  0  0  0  0  0
   -1.9562    6.1536   23.8498 C   0  0  0  0  0  0  0  0  0  0  0  0
   -0.5255    4.3819   22.8203 C   0  0  0  0  0  0  0  0  0  0  0  0
   -0.4286   -1.2592   29.6036 C   0  0  0  0  0  0  0  0  0  0  0  0
   -0.8966   -2.0710   30.6048 C   0  0  0  0  0  0  0  0  0  0  0  0
   -0.6696   -3.7397   30.7703 Cl  0  0  0  0  0  0  0  0  0  0  0  0
  1  2  1  0
  2  3  2  0
  3  4  1  0
  4  5  1  0
  5  6  1  0
  6  7  1  0
  7  8  1  0
  8  9  2  0
  8 10  1  0
 11 10  1  1
 11 12  1  0
 12 13  2  0
 13 14  1  0
 14 15  1  0
 15 16  2  0
 16 17  1  0
 16 18  1  0
 18 19  2  0
 19 20  1  0
 20 21  2  0
 11 22  1  0
 22 23  1  0
 22 24  1  0
  4 25  1  0
 25 26  2  0
 26 27  1  0
 26  2  1  0
 21 12  1  0
 21 15  1  0
M  END
>  <name>  (32) 
P61021

>  <HIPPO Compound ID>  (32) 
98314

>  <energy_score>  (32) 
-11.301471

>  <HIPPO Pose ID>  (32) 
61021

>  <inspiration_score>  (32) 
None

>  <ref_pdb>  (32) 
7go7-a

>  <inchikey>  (32) 
ZWZJWCCQPWPAHP-HNNXBMFYSA-N

>  <alias>  (32) 
None

>  <distance_score>  (32) 
1.874258

>  <ref_mols>  (32) 
7goy-a,7gp2-a

>  <smiles>  (32) 
Cc1nn(CCNC(=O)C[C@H](c2c[nH]c3c(Br)cccc23)C(C)C)cc1Cl

$$$$
P61022
     RDKit          3D

 27 29  0  0  0  0  0  0  0  0999 V2000
   -3.4425   -1.3224   32.7349 C   0  0  0  0  0  0  0  0  0  0  0  0
   -2.2380   -1.0619   31.9230 C   0  0  0  0  0  0  0  0  0  0  0  0
   -1.9001    0.1972   31.6093 N   0  0  0  0  0  0  0  0  0  0  0  0
   -0.7680    0.0472   30.9025 N   0  0  0  0  0  0  0  0  0  0  0  0
   -0.2473    1.1528   30.1604 C   0  0  0  0  0  0  0  0  0  0  0  0
    0.2606    2.3726   30.9101 C   0  0  0  0  0  0  0  0  0  0  0  0
    0.8253    3.2024   29.8739 N   0  0  0  0  0  0  0  0  0  0  0  0
    2.2775    3.3231   29.3673 C   0  0  0  0  0  0  0  0  0  0  0  0
    3.2573    2.8289   29.7588 O   0  0  0  0  0  0  0  0  0  0  0  0
    2.2384    4.1763   28.1060 C   0  0  0  0  0  0  0  0  0  0  0  0
    1.9395    3.2229   26.9161 C   0  0  1  0  0  0  0  0  0  0  0  0
    0.4444    2.8913   26.7897 C   0  0  0  0  0  0  0  0  0  0  0  0
   -0.1358    1.6580   27.0326 C   0  0  0  0  0  0  0  0  0  0  0  0
   -1.4811    1.7515   26.8131 N   0  0  0  0  0  0  0  0  0  0  0  0
   -1.7424    2.9465   26.1927 C   0  0  0  0  0  0  0  0  0  0  0  0
   -2.8727    3.3679   25.4902 C   0  0  0  0  0  0  0  0  0  0  0  0
   -2.7672    4.5702   24.7820 C   0  0  0  0  0  0  0  0  0  0  0  0
   -3.9768    4.9533   23.3817 Br  0  0  0  0  0  0  0  0  0  0  0  0
   -1.7010    5.4346   24.9709 C   0  0  0  0  0  0  0  0  0  0  0  0
   -0.6231    5.0341   25.7544 C   0  0  0  0  0  0  0  0  0  0  0  0
   -0.5924    3.7261   26.2738 C   0  0  0  0  0  0  0  0  0  0  0  0
    2.5509    3.6426   25.5328 C   0  0  0  0  0  0  0  0  0  0  0  0
    3.6024    2.6164   25.0836 C   0  0  0  0  0  0  0  0  0  0  0  0
    3.1721    5.0408   25.4755 C   0  0  0  0  0  0  0  0  0  0  0  0
   -0.3982   -1.2516   30.7171 C   0  0  0  0  0  0  0  0  0  0  0  0
   -1.3236   -1.9988   31.3928 C   0  0  0  0  0  0  0  0  0  0  0  0
   -1.3535   -3.6790   31.5742 Cl  0  0  0  0  0  0  0  0  0  0  0  0
  1  2  1  0
  2  3  2  0
  3  4  1  0
  4  5  1  0
  5  6  1  0
  6  7  1  0
  7  8  1  0
  8  9  2  0
  8 10  1  0
 11 10  1  1
 11 12  1  0
 12 13  2  0
 13 14  1  0
 14 15  1  0
 15 16  2  0
 16 17  1  0
 17 18  1  0
 17 19  2  0
 19 20  1  0
 20 21  2  0
 11 22  1  0
 22 23  1  0
 22 24  1  0
  4 25  1  0
 25 26  2  0
 26 27  1  0
 26  2  1  0
 21 12  1  0
 21 15  1  0
M  END
>  <name>  (33) 
P61022

>  <HIPPO Compound ID>  (33) 
98315

>  <energy_score>  (33) 
-18.581455

>  <HIPPO Pose ID>  (33) 
61022

>  <inspiration_score>  (33) 
None

>  <ref_pdb>  (33) 
7go7-a

>  <inchikey>  (33) 
CKOZDSGQVJCJEU-MRXNPFEDSA-N

>  <alias>  (33) 
None

>  <distance_score>  (33) 
1.843579

>  <ref_mols>  (33) 
7goy-a,7gp2-a

>  <smiles>  (33) 
Cc1nn(CCNC(=O)C[C@@H](c2c[nH]c3cc(Br)ccc23)C(C)C)cc1Cl

$$$$
P61023
     RDKit          3D

 27 29  0  0  0  0  0  0  0  0999 V2000
   -3.1575   -1.5931   31.9764 C   0  0  0  0  0  0  0  0  0  0  0  0
   -1.9270   -0.9145   31.5212 C   0  0  0  0  0  0  0  0  0  0  0  0
   -1.4461    0.0977   32.2520 N   0  0  0  0  0  0  0  0  0  0  0  0
   -0.2847    0.4239   31.6571 N   0  0  0  0  0  0  0  0  0  0  0  0
    0.5856    1.4447   32.2514 C   0  0  2  0  0  0  0  0  0  0  0  0
    0.1951    1.8534   33.6741 C   0  0  0  0  0  0  0  0  0  0  0  0
    0.5575    2.6601   31.3212 C   0  0  0  0  0  0  0  0  0  0  0  0
   -0.2285    3.5206   31.4091 O   0  0  0  0  0  0  0  0  0  0  0  0
    1.6716    2.4165   30.2617 N   0  0  0  0  0  0  0  0  0  0  0  0
    1.9562    3.0750   29.1400 N   0  0  0  0  0  0  0  0  0  0  0  0
    3.2081    3.0153   28.2286 C   0  0  0  0  0  0  0  0  0  0  0  0
    4.2135    2.4384   28.3620 O   0  0  0  0  0  0  0  0  0  0  0  0
    2.8630    3.8067   26.9811 C   0  0  0  0  0  0  0  0  0  0  0  0
    2.1060    2.8814   26.0234 C   0  0  0  0  0  0  0  0  0  0  0  0
    0.6436    2.6971   26.3501 C   0  0  0  0  0  0  0  0  0  0  0  0
    0.0636    1.6684   27.0733 C   0  0  0  0  0  0  0  0  0  0  0  0
   -1.2888    1.8550   27.0753 N   0  0  0  0  0  0  0  0  0  0  0  0
   -1.6021    2.9296   26.2753 C   0  0  0  0  0  0  0  0  0  0  0  0
   -2.8401    3.3914   25.8114 C   0  0  0  0  0  0  0  0  0  0  0  0
   -4.1080    2.6564   26.0610 C   0  0  0  0  0  0  0  0  0  0  0  0
   -2.8508    4.5504   25.0181 C   0  0  0  0  0  0  0  0  0  0  0  0
   -1.6813    5.2185   24.6949 C   0  0  0  0  0  0  0  0  0  0  0  0
   -0.4579    4.7088   25.1168 C   0  0  0  0  0  0  0  0  0  0  0  0
   -0.4126    3.5340   25.8930 C   0  0  0  0  0  0  0  0  0  0  0  0
   -0.0496   -0.3151   30.5267 C   0  0  0  0  0  0  0  0  0  0  0  0
   -1.1036   -1.1863   30.4092 C   0  0  0  0  0  0  0  0  0  0  0  0
   -1.3214   -2.3637   29.2189 Cl  0  0  0  0  0  0  0  0  0  0  0  0
  1  2  1  0
  2  3  2  0
  3  4  1  0
  4  5  1  0
  5  6  1  1
  5  7  1  0
  7  8  2  0
  7  9  1  0
  9 10  1  0
 10 11  1  0
 11 12  2  0
 11 13  1  0
 13 14  1  0
 14 15  1  0
 15 16  2  0
 16 17  1  0
 17 18  1  0
 18 19  2  0
 19 20  1  0
 19 21  1  0
 21 22  2  0
 22 23  1  0
 23 24  2  0
  4 25  1  0
 25 26  2  0
 26 27  1  0
 26  2  1  0
 24 15  1  0
 24 18  1  0
M  END
>  <name>  (34) 
P61023

>  <HIPPO Compound ID>  (34) 
98319

>  <energy_score>  (34) 
-18.898963

>  <HIPPO Pose ID>  (34) 
61023

>  <inspiration_score>  (34) 
None

>  <ref_pdb>  (34) 
7go7-a

>  <inchikey>  (34) 
QRZTXPBLVJYZJJ-CYBMUJFWSA-N

>  <alias>  (34) 
None

>  <distance_score>  (34) 
1.790551

>  <ref_mols>  (34) 
7goy-a,7gp2-a

>  <smiles>  (34) 
Cc1nn([C@H](C)C(=O)NNC(=O)CCc2c[nH]c3c(C)cccc23)cc1Cl

$$$$
P61026
     RDKit          3D

 27 29  0  0  0  0  0  0  0  0999 V2000
   -5.3487    2.2408   34.2855 C   0  0  0  0  0  0  0  0  0  0  0  0
   -4.2546    1.2221   34.5784 C   0  0  0  0  0  0  0  0  0  0  0  0
   -4.6573   -0.2553   34.4134 C   0  0  2  0  0  0  0  0  0  0  0  0
   -4.7582   -0.6518   32.9319 C   0  0  0  0  0  0  0  0  0  0  0  0
   -3.5526   -0.4160   32.1373 N   0  0  0  0  0  0  0  0  0  0  0  0
   -2.7803   -1.3613   31.1606 C   0  0  0  0  0  0  0  0  0  0  0  0
   -2.9503   -2.4928   30.9071 O   0  0  0  0  0  0  0  0  0  0  0  0
   -1.6659   -0.4977   30.4369 C   0  0  0  0  0  0  0  0  0  0  0  0
   -0.5590   -1.2681   30.3044 F   0  0  0  0  0  0  0  0  0  0  0  0
   -1.3172    0.5560   31.2380 F   0  0  0  0  0  0  0  0  0  0  0  0
   -2.1216    0.0414   29.0596 C   0  0  0  0  0  0  0  0  0  0  0  0
   -1.1582    0.9067   28.2685 C   0  0  0  0  0  0  0  0  0  0  0  0
    0.1797    0.6312   28.0295 C   0  0  0  0  0  0  0  0  0  0  0  0
    1.0319   -0.5633   28.2801 C   0  0  0  0  0  0  0  0  0  0  0  0
    0.7466    1.7537   27.4919 N   0  0  0  0  0  0  0  0  0  0  0  0
   -0.2128    2.6628   27.1469 C   0  0  0  0  0  0  0  0  0  0  0  0
   -0.0787    3.8952   26.4975 C   0  0  0  0  0  0  0  0  0  0  0  0
   -1.2387    4.5919   26.1670 C   0  0  0  0  0  0  0  0  0  0  0  0
   -2.4828    4.0644   26.4746 C   0  0  0  0  0  0  0  0  0  0  0  0
   -2.5899    2.8440   27.1512 C   0  0  0  0  0  0  0  0  0  0  0  0
   -1.4375    2.1248   27.5301 C   0  0  0  0  0  0  0  0  0  0  0  0
   -5.8615   -0.5196   35.2059 N   0  0  0  0  0  0  0  0  0  0  0  0
   -7.1597   -0.6267   34.7832 C   0  0  0  0  0  0  0  0  0  0  0  0
   -7.9375   -0.5438   35.9133 C   0  0  0  0  0  0  0  0  0  0  0  0
   -9.6215   -0.6014   36.0377 Cl  0  0  0  0  0  0  0  0  0  0  0  0
   -7.0278   -0.4154   36.9739 C   0  0  0  0  0  0  0  0  0  0  0  0
   -5.7602   -0.4548   36.5539 N   0  0  0  0  0  0  0  0  0  0  0  0
  1  2  1  0
  3  2  1  6
  3  4  1  0
  4  5  1  0
  5  6  1  0
  6  7  2  0
  6  8  1  0
  8  9  1  0
  8 10  1  0
  8 11  1  0
 11 12  1  0
 12 13  2  0
 13 14  1  0
 13 15  1  0
 15 16  1  0
 16 17  2  0
 17 18  1  0
 18 19  2  0
 19 20  1  0
 20 21  2  0
  3 22  1  0
 22 23  1  0
 23 24  2  0
 24 25  1  0
 24 26  1  0
 26 27  2  0
 21 12  1  0
 27 22  1  0
 21 16  1  0
M  END
>  <name>  (35) 
P61026

>  <HIPPO Compound ID>  (35) 
98330

>  <energy_score>  (35) 
-16.247083

>  <HIPPO Pose ID>  (35) 
61026

>  <inspiration_score>  (35) 
None

>  <ref_pdb>  (35) 
7go7-a

>  <inchikey>  (35) 
VBFXPEPJRNNZKK-CQSZACIVSA-N

>  <alias>  (35) 
None

>  <distance_score>  (35) 
1.723909

>  <ref_mols>  (35) 
7goy-a,7gp2-a

>  <smiles>  (35) 
CC[C@H](CNC(=O)C(F)(F)Cc1c(C)[nH]c2ccccc12)n1cc(Cl)cn1

$$$$
P61029
     RDKit          3D

 27 29  0  0  0  0  0  0  0  0999 V2000
   -3.0243   -1.2518   32.1758 C   0  0  0  0  0  0  0  0  0  0  0  0
   -1.8000   -0.8070   31.4704 C   0  0  0  0  0  0  0  0  0  0  0  0
   -1.2589    0.3880   31.7482 N   0  0  0  0  0  0  0  0  0  0  0  0
   -0.0914    0.3863   31.0590 N   0  0  0  0  0  0  0  0  0  0  0  0
    0.9394    1.3281   31.4647 C   0  0  0  0  0  0  0  0  0  0  0  0
    0.7637    2.7366   30.9060 C   0  0  0  0  0  0  0  0  0  0  0  0
    1.2732    2.9325   29.5700 N   0  0  0  0  0  0  0  0  0  0  0  0
    2.4957    2.2849   28.8469 C   0  0  0  0  0  0  0  0  0  0  0  0
    3.3169    1.5545   29.2521 O   0  0  0  0  0  0  0  0  0  0  0  0
    2.4711    2.7531   27.3642 C   0  0  0  0  0  0  0  0  0  0  0  0
    3.6849    2.5241   26.7652 F   0  0  0  0  0  0  0  0  0  0  0  0
    2.3071    4.1046   27.2918 F   0  0  0  0  0  0  0  0  0  0  0  0
    1.4041    2.0172   26.5336 C   0  0  0  0  0  0  0  0  0  0  0  0
   -0.0275    2.4552   26.7258 C   0  0  0  0  0  0  0  0  0  0  0  0
   -1.1414    1.7483   27.1654 C   0  0  0  0  0  0  0  0  0  0  0  0
   -1.4346    0.3199   27.4041 C   0  0  0  0  0  0  0  0  0  0  0  0
   -2.1340    2.6638   27.4013 N   0  0  0  0  0  0  0  0  0  0  0  0
   -1.7388    3.9014   26.9812 C   0  0  0  0  0  0  0  0  0  0  0  0
   -2.4091    5.1176   27.0174 C   0  0  0  0  0  0  0  0  0  0  0  0
   -1.7946    6.2308   26.4331 C   0  0  0  0  0  0  0  0  0  0  0  0
   -0.5655    6.1204   25.8058 C   0  0  0  0  0  0  0  0  0  0  0  0
    0.0934    4.8939   25.7944 C   0  0  0  0  0  0  0  0  0  0  0  0
   -0.4822    3.7732   26.4238 C   0  0  0  0  0  0  0  0  0  0  0  0
    0.0335   -0.6947   30.2217 C   0  0  0  0  0  0  0  0  0  0  0  0
    1.1518   -0.9077   29.2747 C   0  0  0  0  0  0  0  0  0  0  0  0
   -1.0347   -1.5075   30.5172 C   0  0  0  0  0  0  0  0  0  0  0  0
   -1.3296   -3.0497   29.9028 Cl  0  0  0  0  0  0  0  0  0  0  0  0
  1  2  1  0
  2  3  2  0
  3  4  1  0
  4  5  1  0
  5  6  1  0
  6  7  1  0
  7  8  1  0
  8  9  2  0
  8 10  1  0
 10 11  1  0
 10 12  1  0
 10 13  1  0
 13 14  1  0
 14 15  2  0
 15 16  1  0
 15 17  1  0
 17 18  1  0
 18 19  2  0
 19 20  1  0
 20 21  2  0
 21 22  1  0
 22 23  2  0
  4 24  1  0
 24 25  1  0
 24 26  2  0
 26 27  1  0
 26  2  1  0
 23 14  1  0
 23 18  1  0
M  END
>  <name>  (36) 
P61029

>  <HIPPO Compound ID>  (36) 
98341

>  <energy_score>  (36) 
-21.732343

>  <HIPPO Pose ID>  (36) 
61029

>  <inspiration_score>  (36) 
None

>  <ref_pdb>  (36) 
7go7-a

>  <inchikey>  (36) 
DXBUCHABRJZFTB-UHFFFAOYSA-N

>  <alias>  (36) 
None

>  <distance_score>  (36) 
1.777982

>  <ref_mols>  (36) 
7goy-a,7gp2-a

>  <smiles>  (36) 
Cc1nn(CCNC(=O)C(F)(F)Cc2c(C)[nH]c3ccccc23)c(C)c1Cl

$$$$
P61030
     RDKit          3D

 27 29  0  0  0  0  0  0  0  0999 V2000
    0.3802   -1.7654   28.2625 C   0  0  0  0  0  0  0  0  0  0  0  0
   -0.3909   -1.4779   29.4931 C   0  0  0  0  0  0  0  0  0  0  0  0
   -0.7038   -0.2167   29.7860 N   0  0  0  0  0  0  0  0  0  0  0  0
   -1.2997   -0.2742   30.9813 N   0  0  0  0  0  0  0  0  0  0  0  0
   -1.6412    0.9783   31.6250 C   0  0  0  0  0  0  0  0  0  0  0  0
   -0.4261    1.6729   32.2363 C   0  0  0  0  0  0  0  0  0  0  0  0
    0.4415    2.2885   31.2596 N   0  0  0  0  0  0  0  0  0  0  0  0
    0.4930    3.7497   30.7356 C   0  0  0  0  0  0  0  0  0  0  0  0
   -0.1064    4.6943   31.0695 O   0  0  0  0  0  0  0  0  0  0  0  0
    1.6163    3.8255   29.6871 C   0  0  0  0  0  0  0  0  0  0  0  0
    1.1628    4.2591   28.2663 C   0  0  2  0  0  0  0  0  0  0  0  0
    0.0872    3.3328   27.7310 C   0  0  0  0  0  0  0  0  0  0  0  0
    0.0559    1.9642   27.8808 C   0  0  0  0  0  0  0  0  0  0  0  0
   -1.1582    1.5134   27.4615 N   0  0  0  0  0  0  0  0  0  0  0  0
   -1.8119    2.5179   26.8054 C   0  0  0  0  0  0  0  0  0  0  0  0
   -3.0146    2.4953   26.1075 C   0  0  0  0  0  0  0  0  0  0  0  0
   -3.4178    3.6595   25.4546 C   0  0  0  0  0  0  0  0  0  0  0  0
   -2.6709    4.8251   25.5559 C   0  0  0  0  0  0  0  0  0  0  0  0
   -1.5155    4.8593   26.3362 C   0  0  0  0  0  0  0  0  0  0  0  0
   -1.0546    3.6766   26.9455 C   0  0  0  0  0  0  0  0  0  0  0  0
    2.3913    4.3245   27.2928 C   0  0  0  0  0  0  0  0  0  0  0  0
    2.0123    4.8004   25.8832 C   0  0  0  0  0  0  0  0  0  0  0  0
    3.5086    5.2373   27.8173 C   0  0  0  0  0  0  0  0  0  0  0  0
   -1.5020   -1.5529   31.4195 C   0  0  0  0  0  0  0  0  0  0  0  0
   -2.2281   -1.8897   32.6629 C   0  0  0  0  0  0  0  0  0  0  0  0
   -0.8548   -2.3510   30.4972 C   0  0  0  0  0  0  0  0  0  0  0  0
   -0.6042   -4.0256   30.5653 Cl  0  0  0  0  0  0  0  0  0  0  0  0
  1  2  1  0
  2  3  2  0
  3  4  1  0
  4  5  1  0
  5  6  1  0
  6  7  1  0
  7  8  1  0
  8  9  2  0
  8 10  1  0
 11 10  1  1
 11 12  1  0
 12 13  2  0
 13 14  1  0
 14 15  1  0
 15 16  2  0
 16 17  1  0
 17 18  2  0
 18 19  1  0
 19 20  2  0
 11 21  1  0
 21 22  1  0
 21 23  1  0
  4 24  1  0
 24 25  1  0
 24 26  2  0
 26 27  1  0
 26  2  1  0
 20 12  1  0
 20 15  1  0
M  END
>  <name>  (37) 
P61030

>  <HIPPO Compound ID>  (37) 
98342

>  <energy_score>  (37) 
-21.509715

>  <HIPPO Pose ID>  (37) 
61030

>  <inspiration_score>  (37) 
None

>  <ref_pdb>  (37) 
7go7-a

>  <inchikey>  (37) 
UUYIQIABIOUABP-KRWDZBQOSA-N

>  <alias>  (37) 
None

>  <distance_score>  (37) 
1.663622

>  <ref_mols>  (37) 
7goy-a,7gp2-a

>  <smiles>  (37) 
Cc1nn(CCNC(=O)C[C@H](c2c[nH]c3ccccc23)C(C)C)c(C)c1Cl

$$$$
P61031
     RDKit          3D

 27 29  0  0  0  0  0  0  0  0999 V2000
   -1.6341   -1.7329   30.4402 C   0  0  0  0  0  0  0  0  0  0  0  0
   -1.1741   -0.7401   29.3790 C   0  0  0  0  0  0  0  0  0  0  0  0
   -1.7346    0.6667   29.5895 C   0  0  1  0  0  0  0  0  0  0  0  0
   -1.3752    1.1968   30.9951 C   0  0  0  0  0  0  0  0  0  0  0  0
   -0.3656    1.7352   31.2429 O   0  0  0  0  0  0  0  0  0  0  0  0
   -2.5972    0.8589   31.9160 N   0  0  0  0  0  0  0  0  0  0  0  0
   -2.7621    1.0205   33.2410 N   0  0  0  0  0  0  0  0  0  0  0  0
   -3.8680    1.7744   34.0372 C   0  0  0  0  0  0  0  0  0  0  0  0
   -4.8423    2.3019   33.6650 O   0  0  0  0  0  0  0  0  0  0  0  0
   -3.4433    1.6857   35.5014 C   0  0  0  0  0  0  0  0  0  0  0  0
   -4.3652    2.4796   36.4419 C   0  0  2  0  0  0  0  0  0  0  0  0
   -4.1628    3.9936   36.3039 C   0  0  0  0  0  0  0  0  0  0  0  0
   -4.2013    2.0312   37.8761 C   0  0  0  0  0  0  0  0  0  0  0  0
   -5.2014    1.4708   38.6499 C   0  0  0  0  0  0  0  0  0  0  0  0
   -4.6894    1.1871   39.8855 N   0  0  0  0  0  0  0  0  0  0  0  0
   -3.3637    1.5434   39.9441 C   0  0  0  0  0  0  0  0  0  0  0  0
   -2.4512    1.4312   41.0006 C   0  0  0  0  0  0  0  0  0  0  0  0
   -1.1477    1.8838   40.7841 C   0  0  0  0  0  0  0  0  0  0  0  0
   -0.7751    2.4281   39.5591 C   0  0  0  0  0  0  0  0  0  0  0  0
   -1.7007    2.5325   38.5137 C   0  0  0  0  0  0  0  0  0  0  0  0
   -3.0251    2.0816   38.7010 C   0  0  0  0  0  0  0  0  0  0  0  0
   -1.3663    1.5896   28.5081 N   0  0  0  0  0  0  0  0  0  0  0  0
   -0.2284    2.3296   28.3481 C   0  0  0  0  0  0  0  0  0  0  0  0
   -0.4700    3.1777   27.2947 C   0  0  0  0  0  0  0  0  0  0  0  0
    0.5406    4.3758   26.6632 Cl  0  0  0  0  0  0  0  0  0  0  0  0
   -1.7453    2.8275   26.8275 C   0  0  0  0  0  0  0  0  0  0  0  0
   -2.2652    1.8046   27.5140 N   0  0  0  0  0  0  0  0  0  0  0  0
  1  2  1  0
  3  2  1  6
  3  4  1  0
  4  5  2  0
  4  6  1  0
  6  7  1  0
  7  8  1  0
  8  9  2  0
  8 10  1  0
 10 11  1  0
 11 12  1  1
 11 13  1  0
 13 14  2  0
 14 15  1  0
 15 16  1  0
 16 17  2  0
 17 18  1  0
 18 19  2  0
 19 20  1  0
 20 21  2  0
  3 22  1  0
 22 23  1  0
 23 24  2  0
 24 25  1  0
 24 26  1  0
 26 27  2  0
 21 13  1  0
 27 22  1  0
 21 16  1  0
M  END
>  <name>  (38) 
P61031

>  <HIPPO Compound ID>  (38) 
98348

>  <energy_score>  (38) 
-0.868962

>  <HIPPO Pose ID>  (38) 
61031

>  <inspiration_score>  (38) 
None

>  <ref_pdb>  (38) 
7go7-a

>  <inchikey>  (38) 
ZKJHFKGLIIMNHO-SJCJKPOMSA-N

>  <alias>  (38) 
None

>  <distance_score>  (38) 
1.487887

>  <ref_mols>  (38) 
7goy-a,7gp2-a

>  <smiles>  (38) 
CC[C@@H](C(=O)NNC(=O)C[C@H](C)c1c[nH]c2ccccc12)n1cc(Cl)cn1

$$$$
P61032
     RDKit          3D

 27 29  0  0  0  0  0  0  0  0999 V2000
   -2.3108   -1.1953   32.9281 C   0  0  0  0  0  0  0  0  0  0  0  0
   -1.3275   -1.2727   31.8244 C   0  0  0  0  0  0  0  0  0  0  0  0
   -0.1670   -1.9218   31.9785 N   0  0  0  0  0  0  0  0  0  0  0  0
    0.4273   -1.8262   30.7697 N   0  0  0  0  0  0  0  0  0  0  0  0
    1.8421   -2.2069   30.6448 C   0  0  1  0  0  0  0  0  0  0  0  0
    1.9713   -3.7247   30.5287 C   0  0  0  0  0  0  0  0  0  0  0  0
    2.5206   -1.4890   29.4613 C   0  0  0  0  0  0  0  0  0  0  0  0
    2.9860   -2.0695   28.5572 O   0  0  0  0  0  0  0  0  0  0  0  0
    2.3460    0.0469   29.6964 N   0  0  0  0  0  0  0  0  0  0  0  0
    2.6021    1.0857   28.8875 N   0  0  0  0  0  0  0  0  0  0  0  0
    2.2042    2.5854   29.0126 C   0  0  0  0  0  0  0  0  0  0  0  0
    1.6607    3.1550   29.8767 O   0  0  0  0  0  0  0  0  0  0  0  0
    2.5603    3.2610   27.6889 C   0  0  0  0  0  0  0  0  0  0  0  0
    1.8309    2.6689   26.4754 C   0  0  0  0  0  0  0  0  0  0  0  0
    0.3371    2.5583   26.6225 C   0  0  0  0  0  0  0  0  0  0  0  0
   -0.2953    1.5369   27.3029 C   0  0  0  0  0  0  0  0  0  0  0  0
   -1.6337    1.7502   27.2716 N   0  0  0  0  0  0  0  0  0  0  0  0
   -1.9056    2.8239   26.4707 C   0  0  0  0  0  0  0  0  0  0  0  0
   -3.1419    3.3147   26.0648 C   0  0  0  0  0  0  0  0  0  0  0  0
   -3.1525    4.3776   25.1679 C   0  0  0  0  0  0  0  0  0  0  0  0
   -1.9730    4.9891   24.7701 C   0  0  0  0  0  0  0  0  0  0  0  0
   -0.7238    4.5324   25.2268 C   0  0  0  0  0  0  0  0  0  0  0  0
    0.5070    5.2559   24.7517 C   0  0  0  0  0  0  0  0  0  0  0  0
   -0.6940    3.3836   26.0623 C   0  0  0  0  0  0  0  0  0  0  0  0
   -0.3814   -1.2469   29.8331 C   0  0  0  0  0  0  0  0  0  0  0  0
   -1.4061   -0.6895   30.5492 C   0  0  0  0  0  0  0  0  0  0  0  0
   -2.4991    0.4888   30.0695 Cl  0  0  0  0  0  0  0  0  0  0  0  0
  1  2  1  0
  2  3  2  0
  3  4  1  0
  4  5  1  0
  5  6  1  6
  5  7  1  0
  7  8  2  0
  7  9  1  0
  9 10  1  0
 10 11  1  0
 11 12  2  0
 11 13  1  0
 13 14  1  0
 14 15  1  0
 15 16  2  0
 16 17  1  0
 17 18  1  0
 18 19  2  0
 19 20  1  0
 20 21  2  0
 21 22  1  0
 22 23  1  0
 22 24  2  0
  4 25  1  0
 25 26  2  0
 26 27  1  0
 26  2  1  0
 24 15  1  0
 24 18  1  0
M  END
>  <name>  (39) 
P61032

>  <HIPPO Compound ID>  (39) 
98349

>  <energy_score>  (39) 
-3.128977

>  <HIPPO Pose ID>  (39) 
61032

>  <inspiration_score>  (39) 
None

>  <ref_pdb>  (39) 
7go7-a

>  <inchikey>  (39) 
OODTXPQVXQSDGY-ZDUSSCGKSA-N

>  <alias>  (39) 
None

>  <distance_score>  (39) 
1.92543

>  <ref_mols>  (39) 
7goy-a,7gp2-a

>  <smiles>  (39) 
Cc1nn([C@@H](C)C(=O)NNC(=O)CCc2c[nH]c3cccc(C)c23)cc1Cl

$$$$
P61033
     RDKit          3D

 27 29  0  0  0  0  0  0  0  0999 V2000
    2.1110    3.6932   27.1441 C   0  0  0  0  0  0  0  0  0  0  0  0
    0.8477    4.2993   27.7649 C   0  0  2  0  0  0  0  0  0  0  0  0
    0.9845    4.6543   29.2593 C   0  0  0  0  0  0  0  0  0  0  0  0
    0.8610    3.5067   30.2651 C   0  0  0  0  0  0  0  0  0  0  0  0
   -0.0945    3.3483   30.9167 O   0  0  0  0  0  0  0  0  0  0  0  0
    2.1766    2.6880   30.1954 N   0  0  0  0  0  0  0  0  0  0  0  0
    2.5477    1.4511   30.8447 C   0  0  0  0  0  0  0  0  0  0  0  0
    1.5499    0.8930   31.8577 C   0  0  0  0  0  0  0  0  0  0  0  0
    0.3932    0.1706   31.3522 N   0  0  0  0  0  0  0  0  0  0  0  0
    0.2280   -0.4854   30.1692 C   0  0  0  0  0  0  0  0  0  0  0  0
   -0.9315   -1.2135   30.2881 C   0  0  0  0  0  0  0  0  0  0  0  0
   -1.5897   -2.2196   29.1061 Cl  0  0  0  0  0  0  0  0  0  0  0  0
   -1.3883   -0.9910   31.6063 C   0  0  0  0  0  0  0  0  0  0  0  0
   -2.5339   -1.6290   32.3325 C   0  0  0  0  0  0  0  0  0  0  0  0
   -3.5470   -0.7511   32.5610 F   0  0  0  0  0  0  0  0  0  0  0  0
   -3.0813   -2.6864   31.6654 F   0  0  0  0  0  0  0  0  0  0  0  0
   -2.1445   -2.1015   33.5457 F   0  0  0  0  0  0  0  0  0  0  0  0
   -0.5875   -0.1057   32.2341 N   0  0  0  0  0  0  0  0  0  0  0  0
   -0.3623    3.4664   27.4353 C   0  0  0  0  0  0  0  0  0  0  0  0
   -0.6601    2.2090   27.9192 C   0  0  0  0  0  0  0  0  0  0  0  0
   -1.8650    1.8118   27.4180 N   0  0  0  0  0  0  0  0  0  0  0  0
   -2.3318    2.7551   26.5373 C   0  0  0  0  0  0  0  0  0  0  0  0
   -3.5011    2.7821   25.7786 C   0  0  0  0  0  0  0  0  0  0  0  0
   -3.6926    3.8628   24.9143 C   0  0  0  0  0  0  0  0  0  0  0  0
   -2.7759    4.9023   24.8465 C   0  0  0  0  0  0  0  0  0  0  0  0
   -1.6395    4.8887   25.6546 C   0  0  0  0  0  0  0  0  0  0  0  0
   -1.4017    3.7941   26.5098 C   0  0  0  0  0  0  0  0  0  0  0  0
  2  1  1  1
  2  3  1  0
  3  4  1  0
  4  5  2  0
  4  6  1  0
  6  7  1  0
  7  8  1  0
  8  9  1  0
  9 10  1  0
 10 11  2  0
 11 12  1  0
 11 13  1  0
 13 14  1  0
 14 15  1  0
 14 16  1  0
 14 17  1  0
 13 18  2  0
  2 19  1  0
 19 20  2  0
 20 21  1  0
 21 22  1  0
 22 23  2  0
 23 24  1  0
 24 25  2  0
 25 26  1  0
 26 27  2  0
 18  9  1  0
 27 19  1  0
 27 22  1  0
M  END
>  <name>  (40) 
P61033

>  <HIPPO Compound ID>  (40) 
98365

>  <energy_score>  (40) 
-3.866987

>  <HIPPO Pose ID>  (40) 
61033

>  <inspiration_score>  (40) 
None

>  <ref_pdb>  (40) 
7go7-a

>  <inchikey>  (40) 
TWYHTLRQEJYWJS-LLVKDONJSA-N

>  <alias>  (40) 
None

>  <distance_score>  (40) 
0.937041

>  <ref_mols>  (40) 
7goy-a,7gp2-a

>  <smiles>  (40) 
C[C@H](CC(=O)NCCn1cc(Cl)c(C(F)(F)F)n1)c1c[nH]c2ccccc12

$$$$
P61036
     RDKit          3D

 27 29  0  0  0  0  0  0  0  0999 V2000
    1.0631   -1.2261   28.0778 C   0  0  0  0  0  0  0  0  0  0  0  0
    0.3759   -1.3340   29.3834 C   0  0  0  0  0  0  0  0  0  0  0  0
    0.3035   -0.2656   30.1901 N   0  0  0  0  0  0  0  0  0  0  0  0
   -0.5581   -0.6600   31.1565 N   0  0  0  0  0  0  0  0  0  0  0  0
   -1.3018    0.3808   31.8235 C   0  0  0  0  0  0  0  0  0  0  0  0
   -2.4715    0.7626   30.9315 C   0  0  0  0  0  0  0  0  0  0  0  0
   -3.5748    0.8048   31.3279 O   0  0  0  0  0  0  0  0  0  0  0  0
   -1.8788    1.1530   29.5322 N   0  0  0  0  0  0  0  0  0  0  0  0
   -2.4687    1.7197   28.4579 N   0  0  0  0  0  0  0  0  0  0  0  0
   -2.7273    1.1548   27.0366 C   0  0  0  0  0  0  0  0  0  0  0  0
   -2.5401    0.0892   26.6015 O   0  0  0  0  0  0  0  0  0  0  0  0
   -3.2118    2.3344   26.1926 C   0  0  0  0  0  0  0  0  0  0  0  0
   -2.0239    2.9263   25.4258 C   0  0  0  0  0  0  0  0  0  0  0  0
   -0.8912    3.1967   26.3499 C   0  0  0  0  0  0  0  0  0  0  0  0
   -0.0199    2.2378   26.8352 C   0  0  0  0  0  0  0  0  0  0  0  0
    0.6649    2.7723   27.8824 N   0  0  0  0  0  0  0  0  0  0  0  0
    0.3358    4.0965   28.0131 C   0  0  0  0  0  0  0  0  0  0  0  0
    0.7983    5.0275   28.9388 C   0  0  0  0  0  0  0  0  0  0  0  0
    0.3684    6.3447   28.8059 C   0  0  0  0  0  0  0  0  0  0  0  0
   -0.4979    6.7087   27.7799 C   0  0  0  0  0  0  0  0  0  0  0  0
   -0.9980    5.7647   26.8592 C   0  0  0  0  0  0  0  0  0  0  0  0
   -1.8753    6.2526   25.7436 C   0  0  0  0  0  0  0  0  0  0  0  0
   -0.5736    4.4205   27.0016 C   0  0  0  0  0  0  0  0  0  0  0  0
   -0.9313   -1.9736   31.0676 C   0  0  0  0  0  0  0  0  0  0  0  0
   -1.8831   -2.6008   32.0150 C   0  0  0  0  0  0  0  0  0  0  0  0
   -0.3179   -2.4403   29.9249 C   0  0  0  0  0  0  0  0  0  0  0  0
   -0.3903   -3.9897   29.2444 Cl  0  0  0  0  0  0  0  0  0  0  0  0
  1  2  1  0
  2  3  2  0
  3  4  1  0
  4  5  1  0
  5  6  1  0
  6  7  2  0
  6  8  1  0
  8  9  1  0
  9 10  1  0
 10 11  2  0
 10 12  1  0
 12 13  1  0
 13 14  1  0
 14 15  2  0
 15 16  1  0
 16 17  1  0
 17 18  2  0
 18 19  1  0
 19 20  2  0
 20 21  1  0
 21 22  1  0
 21 23  2  0
  4 24  1  0
 24 25  1  0
 24 26  2  0
 26 27  1  0
 26  2  1  0
 23 14  1  0
 23 17  1  0
M  END
>  <name>  (41) 
P61036

>  <HIPPO Compound ID>  (41) 
98367

>  <energy_score>  (41) 
-8.915442

>  <HIPPO Pose ID>  (41) 
61036

>  <inspiration_score>  (41) 
None

>  <ref_pdb>  (41) 
7go7-a

>  <inchikey>  (41) 
GWJWLEFAMRWZIC-UHFFFAOYSA-N

>  <alias>  (41) 
None

>  <distance_score>  (41) 
1.714881

>  <ref_mols>  (41) 
7goy-a,7gp2-a

>  <smiles>  (41) 
Cc1nn(CC(=O)NNC(=O)CCc2c[nH]c3cccc(C)c23)c(C)c1Cl

$$$$
P61037
     RDKit          3D

 27 29  0  0  0  0  0  0  0  0999 V2000
   -1.6306   -1.3326   28.3366 C   0  0  0  0  0  0  0  0  0  0  0  0
   -1.5830   -0.3499   29.4909 C   0  0  0  0  0  0  0  0  0  0  0  0
   -0.5123    0.7468   29.3054 C   0  0  2  0  0  0  0  0  0  0  0  0
   -0.1658    1.2581   30.7219 C   0  0  0  0  0  0  0  0  0  0  0  0
   -0.6042    2.2423   31.1801 O   0  0  0  0  0  0  0  0  0  0  0  0
    0.7488    0.1612   31.3633 N   0  0  0  0  0  0  0  0  0  0  0  0
    1.1909    0.0229   32.6262 N   0  0  0  0  0  0  0  0  0  0  0  0
    1.5015   -1.2593   33.4531 C   0  0  0  0  0  0  0  0  0  0  0  0
    1.4939   -2.3836   33.1368 O   0  0  0  0  0  0  0  0  0  0  0  0
    1.7780   -0.7782   34.8721 C   0  0  0  0  0  0  0  0  0  0  0  0
    1.9683   -1.9560   35.8264 C   0  0  0  0  0  0  0  0  0  0  0  0
    1.9521   -1.5248   37.2577 C   0  0  0  0  0  0  0  0  0  0  0  0
    0.8570   -1.5508   38.0989 C   0  0  0  0  0  0  0  0  0  0  0  0
    1.2410   -1.0791   39.3252 N   0  0  0  0  0  0  0  0  0  0  0  0
    0.3624   -0.9620   40.4684 C   0  0  0  0  0  0  0  0  0  0  0  0
    2.5769   -0.7404   39.3086 C   0  0  0  0  0  0  0  0  0  0  0  0
    3.4098   -0.2238   40.3142 C   0  0  0  0  0  0  0  0  0  0  0  0
    4.7487    0.0226   39.9975 C   0  0  0  0  0  0  0  0  0  0  0  0
    5.2422   -0.2388   38.7233 C   0  0  0  0  0  0  0  0  0  0  0  0
    4.4051   -0.7556   37.7287 C   0  0  0  0  0  0  0  0  0  0  0  0
    3.0487   -1.0120   38.0203 C   0  0  0  0  0  0  0  0  0  0  0  0
   -0.8931    1.8444   28.4119 N   0  0  0  0  0  0  0  0  0  0  0  0
   -0.1561    2.9740   28.1637 C   0  0  0  0  0  0  0  0  0  0  0  0
   -0.8992    3.7329   27.2937 C   0  0  0  0  0  0  0  0  0  0  0  0
   -0.5385    5.2603   26.6681 Cl  0  0  0  0  0  0  0  0  0  0  0  0
   -2.0352    2.9590   27.0137 C   0  0  0  0  0  0  0  0  0  0  0  0
   -2.0045    1.7762   27.6393 N   0  0  0  0  0  0  0  0  0  0  0  0
  1  2  1  0
  3  2  1  1
  3  4  1  0
  4  5  2  0
  4  6  1  0
  6  7  1  0
  7  8  1  0
  8  9  2  0
  8 10  1  0
 10 11  1  0
 11 12  1  0
 12 13  2  0
 13 14  1  0
 14 15  1  0
 14 16  1  0
 16 17  2  0
 17 18  1  0
 18 19  2  0
 19 20  1  0
 20 21  2  0
  3 22  1  0
 22 23  1  0
 23 24  2  0
 24 25  1  0
 24 26  1  0
 26 27  2  0
 21 12  1  0
 27 22  1  0
 21 16  1  0
M  END
>  <name>  (42) 
P61037

>  <HIPPO Compound ID>  (42) 
98368

>  <energy_score>  (42) 
-13.012541

>  <HIPPO Pose ID>  (42) 
61037

>  <inspiration_score>  (42) 
None

>  <ref_pdb>  (42) 
7go7-a

>  <inchikey>  (42) 
XQVUYXCGYHYGAY-MRXNPFEDSA-N

>  <alias>  (42) 
None

>  <distance_score>  (42) 
1.164911

>  <ref_mols>  (42) 
7goy-a,7gp2-a

>  <smiles>  (42) 
CC[C@H](C(=O)NNC(=O)CCc1cn(C)c2ccccc12)n1cc(Cl)cn1

$$$$
P61038
     RDKit          3D

 27 29  0  0  0  0  0  0  0  0999 V2000
   -1.9641    7.5821   27.0135 C   0  0  0  0  0  0  0  0  0  0  0  0
   -1.4472    6.2303   26.6151 C   0  0  0  0  0  0  0  0  0  0  0  0
   -0.4117    6.1897   25.6862 C   0  0  0  0  0  0  0  0  0  0  0  0
    0.2323    4.9915   25.4128 C   0  0  0  0  0  0  0  0  0  0  0  0
   -0.1352    3.8300   26.1115 C   0  0  0  0  0  0  0  0  0  0  0  0
    0.5167    2.5861   26.3179 C   0  0  0  0  0  0  0  0  0  0  0  0
    1.9574    2.3361   25.9229 C   0  0  0  0  0  0  0  0  0  0  0  0
    2.9694    3.1993   26.7121 C   0  0  0  0  0  0  0  0  0  0  0  0
    3.2583    2.4835   28.0181 C   0  0  0  0  0  0  0  0  0  0  0  0
    4.2002    1.8180   28.1936 O   0  0  0  0  0  0  0  0  0  0  0  0
    2.0354    2.7525   28.9298 N   0  0  0  0  0  0  0  0  0  0  0  0
    1.7034    2.2279   30.1040 N   0  0  0  0  0  0  0  0  0  0  0  0
    0.5667    2.6061   31.0915 C   0  0  0  0  0  0  0  0  0  0  0  0
   -0.2025    3.4857   31.0599 O   0  0  0  0  0  0  0  0  0  0  0  0
    0.4949    1.5248   32.1710 C   0  0  2  0  0  0  0  0  0  0  0  0
    1.8080    1.0522   32.7836 C   0  0  0  0  0  0  0  0  0  0  0  0
   -0.3263    0.4295   31.6472 N   0  0  0  0  0  0  0  0  0  0  0  0
   -0.1221   -0.3432   30.5362 C   0  0  0  0  0  0  0  0  0  0  0  0
   -1.1712   -1.2250   30.4821 C   0  0  0  0  0  0  0  0  0  0  0  0
   -1.4120   -2.4428   29.3389 Cl  0  0  0  0  0  0  0  0  0  0  0  0
   -1.9682   -0.9131   31.6022 C   0  0  0  0  0  0  0  0  0  0  0  0
   -3.2005   -1.5631   32.0913 C   0  0  0  0  0  0  0  0  0  0  0  0
   -1.4625    0.1141   32.2965 N   0  0  0  0  0  0  0  0  0  0  0  0
   -0.3558    1.7890   27.0408 C   0  0  0  0  0  0  0  0  0  0  0  0
   -1.4322    2.5651   27.3992 N   0  0  0  0  0  0  0  0  0  0  0  0
   -1.2502    3.8480   26.9341 C   0  0  0  0  0  0  0  0  0  0  0  0
   -1.9500    5.0356   27.1740 C   0  0  0  0  0  0  0  0  0  0  0  0
  1  2  1  0
  2  3  2  0
  3  4  1  0
  4  5  2  0
  5  6  1  0
  6  7  1  0
  7  8  1  0
  8  9  1  0
  9 10  2  0
  9 11  1  0
 11 12  1  0
 12 13  1  0
 13 14  2  0
 13 15  1  0
 15 16  1  6
 15 17  1  0
 17 18  1  0
 18 19  2  0
 19 20  1  0
 19 21  1  0
 21 22  1  0
 21 23  2  0
  6 24  2  0
 24 25  1  0
 25 26  1  0
 26 27  2  0
 27  2  1  0
 26  5  1  0
 23 17  1  0
M  END
>  <name>  (43) 
P61038

>  <HIPPO Compound ID>  (43) 
98371

>  <energy_score>  (43) 
-22.020544

>  <HIPPO Pose ID>  (43) 
61038

>  <inspiration_score>  (43) 
None

>  <ref_pdb>  (43) 
7go7-a

>  <inchikey>  (43) 
XAAFLHXGIZTPFJ-ZDUSSCGKSA-N

>  <alias>  (43) 
None

>  <distance_score>  (43) 
1.696809

>  <ref_mols>  (43) 
7goy-a,7gp2-a

>  <smiles>  (43) 
Cc1ccc2c(CCC(=O)NNC(=O)[C@H](C)n3cc(Cl)c(C)n3)c[nH]c2c1

$$$$
P61039
     RDKit          3D

 28 30  0  0  0  0  0  0  0  0999 V2000
    0.2158    7.9698   26.8019 C   0  0  0  0  0  0  0  0  0  0  0  0
   -0.2599    6.5471   26.7607 C   0  0  0  0  0  0  0  0  0  0  0  0
   -1.6229    6.2684   26.6579 C   0  0  0  0  0  0  0  0  0  0  0  0
   -2.1022    4.9516   26.6059 C   0  0  0  0  0  0  0  0  0  0  0  0
   -1.1828    3.8903   26.6152 C   0  0  0  0  0  0  0  0  0  0  0  0
   -1.2915    2.4731   26.6515 C   0  0  0  0  0  0  0  0  0  0  0  0
   -2.5162    1.6689   26.8948 C   0  0  0  0  0  0  0  0  0  0  0  0
   -2.2601    0.5432   27.8911 C   0  0  0  0  0  0  0  0  0  0  0  0
   -2.2211    0.9679   29.3660 C   0  0  0  0  0  0  0  0  0  0  0  0
   -3.0483    0.6517   30.1219 O   0  0  0  0  0  0  0  0  0  0  0  0
   -0.9026    1.7353   29.5910 N   0  0  0  0  0  0  0  0  0  0  0  0
   -0.2837    2.1885   30.8029 C   0  0  0  0  0  0  0  0  0  0  0  0
    0.8214    1.1833   31.1637 C   0  0  1  0  0  0  0  0  0  0  0  0
    1.4938    1.4764   32.5356 C   0  0  0  0  0  0  0  0  0  0  0  0
    2.0351    2.9082   32.6159 C   0  0  0  0  0  0  0  0  0  0  0  0
    2.6426    0.4960   32.8108 C   0  0  0  0  0  0  0  0  0  0  0  0
    0.2669   -0.1688   31.0801 N   0  0  0  0  0  0  0  0  0  0  0  0
   -0.6052   -0.5414   32.0348 N   0  0  0  0  0  0  0  0  0  0  0  0
   -1.1908   -1.6312   31.5324 C   0  0  0  0  0  0  0  0  0  0  0  0
   -2.3191   -2.2475   32.2556 C   0  0  0  0  0  0  0  0  0  0  0  0
   -0.5893   -2.0248   30.3186 C   0  0  0  0  0  0  0  0  0  0  0  0
   -0.9329   -3.3941   29.3938 Cl  0  0  0  0  0  0  0  0  0  0  0  0
    0.3308   -1.0462   30.0202 C   0  0  0  0  0  0  0  0  0  0  0  0
    1.1813   -0.8850   28.8141 C   0  0  0  0  0  0  0  0  0  0  0  0
   -0.0067    1.9740   26.5759 C   0  0  0  0  0  0  0  0  0  0  0  0
    0.8674    3.0120   26.6179 N   0  0  0  0  0  0  0  0  0  0  0  0
    0.1757    4.1901   26.6794 C   0  0  0  0  0  0  0  0  0  0  0  0
    0.6605    5.4949   26.7654 C   0  0  0  0  0  0  0  0  0  0  0  0
  1  2  1  0
  2  3  2  0
  3  4  1  0
  4  5  2  0
  5  6  1  0
  6  7  1  0
  7  8  1  0
  8  9  1  0
  9 10  2  0
  9 11  1  0
 11 12  1  0
 13 12  1  1
 13 14  1  0
 14 15  1  0
 14 16  1  0
 13 17  1  0
 17 18  1  0
 18 19  2  0
 19 20  1  0
 19 21  1  0
 21 22  1  0
 21 23  2  0
 23 24  1  0
  6 25  2  0
 25 26  1  0
 26 27  1  0
 27 28  2  0
 28  2  1  0
 27  5  1  0
 23 17  1  0
M  END
>  <name>  (44) 
P61039

>  <HIPPO Compound ID>  (44) 
98376

>  <energy_score>  (44) 
-13.7305

>  <HIPPO Pose ID>  (44) 
61039

>  <inspiration_score>  (44) 
None

>  <ref_pdb>  (44) 
7go7-a

>  <inchikey>  (44) 
ZAVNOLJRTANYTE-FQEVSTJZSA-N

>  <alias>  (44) 
None

>  <distance_score>  (44) 
1.689098

>  <ref_mols>  (44) 
7goy-a,7gp2-a

>  <smiles>  (44) 
Cc1ccc2c(CCC(=O)NC[C@@H](C(C)C)n3nc(C)c(Cl)c3C)c[nH]c2c1

$$$$
P61040
     RDKit          3D

 28 30  0  0  0  0  0  0  0  0999 V2000
   -2.5613   -2.1419   32.0591 C   0  0  0  0  0  0  0  0  0  0  0  0
   -1.5551   -1.4889   31.1996 C   0  0  0  0  0  0  0  0  0  0  0  0
   -1.2447   -0.2070   31.4160 N   0  0  0  0  0  0  0  0  0  0  0  0
   -0.2027    0.0071   30.5918 N   0  0  0  0  0  0  0  0  0  0  0  0
    0.4930    1.2745   30.6672 C   0  0  2  0  0  0  0  0  0  0  0  0
    0.2191    2.0971   31.9266 C   0  0  0  0  0  0  0  0  0  0  0  0
    0.2155    2.1178   29.4397 C   0  0  0  0  0  0  0  0  0  0  0  0
    1.0752    2.7801   28.9910 O   0  0  0  0  0  0  0  0  0  0  0  0
   -1.2870    1.9726   29.0077 N   0  0  0  0  0  0  0  0  0  0  0  0
   -1.9538    2.5036   27.9553 N   0  0  0  0  0  0  0  0  0  0  0  0
   -2.6740    1.8097   26.7601 C   0  0  0  0  0  0  0  0  0  0  0  0
   -2.7334    0.6799   26.4643 O   0  0  0  0  0  0  0  0  0  0  0  0
   -3.3369    2.9114   25.9189 C   0  0  0  0  0  0  0  0  0  0  0  0
   -2.4116    3.4215   24.8069 C   0  0  0  0  0  0  0  0  0  0  0  0
   -1.1441    3.8860   25.4130 C   0  0  0  0  0  0  0  0  0  0  0  0
   -0.0878    3.0745   25.7725 C   0  0  0  0  0  0  0  0  0  0  0  0
    0.6499    3.7542   26.6936 N   0  0  0  0  0  0  0  0  0  0  0  0
    0.1010    4.9898   26.9144 C   0  0  0  0  0  0  0  0  0  0  0  0
    0.4336    5.9493   27.8658 C   0  0  0  0  0  0  0  0  0  0  0  0
   -0.2114    7.1814   27.7845 C   0  0  0  0  0  0  0  0  0  0  0  0
   -1.1264    7.4401   26.7666 C   0  0  0  0  0  0  0  0  0  0  0  0
   -1.4872    6.4532   25.8251 C   0  0  0  0  0  0  0  0  0  0  0  0
   -2.3476    6.8512   24.6562 C   0  0  0  0  0  0  0  0  0  0  0  0
   -0.8983    5.1751   25.9630 C   0  0  0  0  0  0  0  0  0  0  0  0
   -0.0574   -0.9740   29.6438 C   0  0  0  0  0  0  0  0  0  0  0  0
    0.7763   -0.8522   28.4182 C   0  0  0  0  0  0  0  0  0  0  0  0
   -0.8189   -2.0173   30.1146 C   0  0  0  0  0  0  0  0  0  0  0  0
   -0.8428   -3.5941   29.5149 Cl  0  0  0  0  0  0  0  0  0  0  0  0
  1  2  1  0
  2  3  2  0
  3  4  1  0
  4  5  1  0
  5  6  1  1
  5  7  1  0
  7  8  2  0
  7  9  1  0
  9 10  1  0
 10 11  1  0
 11 12  2  0
 11 13  1  0
 13 14  1  0
 14 15  1  0
 15 16  2  0
 16 17  1  0
 17 18  1  0
 18 19  2  0
 19 20  1  0
 20 21  2  0
 21 22  1  0
 22 23  1  0
 22 24  2  0
  4 25  1  0
 25 26  1  0
 25 27  2  0
 27 28  1  0
 27  2  1  0
 24 15  1  0
 24 18  1  0
M  END
>  <name>  (45) 
P61040

>  <HIPPO Compound ID>  (45) 
98381

>  <energy_score>  (45) 
-3.67866

>  <HIPPO Pose ID>  (45) 
61040

>  <inspiration_score>  (45) 
None

>  <ref_pdb>  (45) 
7go7-a

>  <inchikey>  (45) 
NMCNZSXLRQYYNW-CQSZACIVSA-N

>  <alias>  (45) 
None

>  <distance_score>  (45) 
1.988901

>  <ref_mols>  (45) 
7goy-a,7gp2-a

>  <smiles>  (45) 
Cc1nn([C@H](C)C(=O)NNC(=O)CCc2c[nH]c3cccc(C)c23)c(C)c1Cl

$$$$
P61041
     RDKit          3D

 28 30  0  0  0  0  0  0  0  0999 V2000
    0.6867   -0.8490   28.2347 C   0  0  0  0  0  0  0  0  0  0  0  0
    0.1695   -0.8439   29.6283 C   0  0  0  0  0  0  0  0  0  0  0  0
    0.7434   -0.0998   30.5711 N   0  0  0  0  0  0  0  0  0  0  0  0
    0.0126   -0.2927   31.6979 N   0  0  0  0  0  0  0  0  0  0  0  0
    0.5007    0.3677   32.9307 C   0  0  1  0  0  0  0  0  0  0  0  0
    1.5791    1.4561   32.6178 C   0  0  0  0  0  0  0  0  0  0  0  0
    1.1720    2.4096   31.6096 N   0  0  0  0  0  0  0  0  0  0  0  0
    1.6155    3.8721   31.3729 C   0  0  0  0  0  0  0  0  0  0  0  0
    2.3194    4.5590   31.9995 O   0  0  0  0  0  0  0  0  0  0  0  0
    0.8606    4.3660   30.1360 C   0  0  0  0  0  0  0  0  0  0  0  0
    1.1486    3.5714   28.8552 C   0  0  0  0  0  0  0  0  0  0  0  0
   -0.1150    3.1675   28.1447 C   0  0  0  0  0  0  0  0  0  0  0  0
   -0.9531    2.1312   28.4977 C   0  0  0  0  0  0  0  0  0  0  0  0
   -2.0015    2.1074   27.6365 N   0  0  0  0  0  0  0  0  0  0  0  0
   -1.9273    3.1822   26.7906 C   0  0  0  0  0  0  0  0  0  0  0  0
   -2.8545    3.6391   25.8495 C   0  0  0  0  0  0  0  0  0  0  0  0
   -4.1916    3.0012   25.6709 C   0  0  0  0  0  0  0  0  0  0  0  0
   -2.5081    4.7800   25.1076 C   0  0  0  0  0  0  0  0  0  0  0  0
   -1.2985    5.4313   25.3051 C   0  0  0  0  0  0  0  0  0  0  0  0
   -0.4091    4.9713   26.2753 C   0  0  0  0  0  0  0  0  0  0  0  0
   -0.7282    3.8342   27.0416 C   0  0  0  0  0  0  0  0  0  0  0  0
   -0.6034    0.8875   33.9009 C   0  0  0  0  0  0  0  0  0  0  0  0
   -0.0303    1.3947   35.2312 C   0  0  0  0  0  0  0  0  0  0  0  0
   -1.5045    1.9553   33.2912 C   0  0  0  0  0  0  0  0  0  0  0  0
   -1.0363   -1.1658   31.4793 C   0  0  0  0  0  0  0  0  0  0  0  0
   -2.0247   -1.6314   32.4841 C   0  0  0  0  0  0  0  0  0  0  0  0
   -0.9391   -1.5159   30.1482 C   0  0  0  0  0  0  0  0  0  0  0  0
   -1.9137   -2.5499   29.2653 Cl  0  0  0  0  0  0  0  0  0  0  0  0
  1  2  1  0
  2  3  2  0
  3  4  1  0
  4  5  1  0
  5  6  1  6
  6  7  1  0
  7  8  1  0
  8  9  2  0
  8 10  1  0
 10 11  1  0
 11 12  1  0
 12 13  2  0
 13 14  1  0
 14 15  1  0
 15 16  2  0
 16 17  1  0
 16 18  1  0
 18 19  2  0
 19 20  1  0
 20 21  2  0
  5 22  1  0
 22 23  1  0
 22 24  1  0
  4 25  1  0
 25 26  1  0
 25 27  2  0
 27 28  1  0
 27  2  1  0
 21 12  1  0
 21 15  1  0
M  END
>  <name>  (46) 
P61041

>  <HIPPO Compound ID>  (46) 
98389

>  <energy_score>  (46) 
-9.560605

>  <HIPPO Pose ID>  (46) 
61041

>  <inspiration_score>  (46) 
None

>  <ref_pdb>  (46) 
7go7-a

>  <inchikey>  (46) 
WDAURFMTEKEJFF-IBGZPJMESA-N

>  <alias>  (46) 
None

>  <distance_score>  (46) 
1.613006

>  <ref_mols>  (46) 
7goy-a,7gp2-a

>  <smiles>  (46) 
Cc1nn([C@@H](CNC(=O)CCc2c[nH]c3c(C)cccc23)C(C)C)c(C)c1Cl

$$$$
P61044
     RDKit          3D

 28 31  0  0  0  0  0  0  0  0999 V2000
   -0.0483   -0.7093   33.5476 C   0  0  0  0  0  0  0  0  0  0  0  0
    0.2819   -1.4519   32.2789 C   0  0  0  0  0  0  0  0  0  0  0  0
    0.9476   -2.4820   32.2781 O   0  0  0  0  0  0  0  0  0  0  0  0
   -0.1316   -0.8370   31.1195 N   0  0  0  0  0  0  0  0  0  0  0  0
    0.7504    0.1731   30.5261 C   0  0  0  0  0  0  0  0  0  0  0  0
    0.0613    0.8786   29.4234 C   0  0  0  0  0  0  0  0  0  0  0  0
    0.3253    2.1525   29.0105 N   0  0  0  0  0  0  0  0  0  0  0  0
   -0.5678    2.5270   28.0324 C   0  0  0  0  0  0  0  0  0  0  0  0
   -0.7189    3.7561   27.3781 C   0  0  0  0  0  0  0  0  0  0  0  0
   -1.7417    3.8717   26.4332 C   0  0  0  0  0  0  0  0  0  0  0  0
   -2.5689    2.7946   26.1412 C   0  0  0  0  0  0  0  0  0  0  0  0
   -2.3919    1.5658   26.7954 C   0  0  0  0  0  0  0  0  0  0  0  0
   -1.3908    1.4273   27.7771 C   0  0  0  0  0  0  0  0  0  0  0  0
   -0.9897    0.4014   28.6785 C   0  0  0  0  0  0  0  0  0  0  0  0
   -1.5276   -0.9430   28.9869 C   0  0  0  0  0  0  0  0  0  0  0  0
   -1.4370   -1.2091   30.5145 C   0  0  2  0  0  0  0  0  0  0  0  0
   -2.6061   -0.5135   31.3155 C   0  0  0  0  0  0  0  0  0  0  0  0
   -3.0096    0.5549   31.0685 O   0  0  0  0  0  0  0  0  0  0  0  0
   -3.0487   -1.5315   32.4110 N   0  0  0  0  0  0  0  0  0  0  0  0
   -4.0154   -1.3985   33.4847 C   0  0  0  0  0  0  0  0  0  0  0  0
   -4.6711   -0.0476   33.7012 C   0  0  0  0  0  0  0  0  0  0  0  0
   -5.6225   -0.1189   34.8008 N   0  0  0  0  0  0  0  0  0  0  0  0
   -6.9726   -0.2883   34.7046 C   0  0  0  0  0  0  0  0  0  0  0  0
   -7.4483   -0.2529   35.9910 C   0  0  0  0  0  0  0  0  0  0  0  0
   -9.0553   -0.4086   36.4989 Cl  0  0  0  0  0  0  0  0  0  0  0  0
   -6.3048   -0.0789   36.8064 C   0  0  0  0  0  0  0  0  0  0  0  0
   -6.2381    0.0402   38.2838 C   0  0  0  0  0  0  0  0  0  0  0  0
   -5.1827   -0.0360   36.0715 N   0  0  0  0  0  0  0  0  0  0  0  0
  1  2  1  0
  2  3  2  0
  2  4  1  0
  4  5  1  0
  5  6  1  0
  6  7  1  0
  7  8  1  0
  8  9  2  0
  9 10  1  0
 10 11  2  0
 11 12  1  0
 12 13  2  0
 13 14  1  0
 14 15  1  0
 15 16  1  0
 16 17  1  1
 17 18  2  0
 17 19  1  0
 19 20  1  0
 20 21  1  0
 21 22  1  0
 22 23  1  0
 23 24  2  0
 24 25  1  0
 24 26  1  0
 26 27  1  0
 26 28  2  0
 16  4  1  0
 28 22  1  0
 14  6  2  0
 13  8  1  0
M  END
>  <name>  (47) 
P61044

>  <HIPPO Compound ID>  (47) 
98393

>  <energy_score>  (47) 
-10.22921

>  <HIPPO Pose ID>  (47) 
61044

>  <inspiration_score>  (47) 
None

>  <ref_pdb>  (47) 
7go7-a

>  <inchikey>  (47) 
ZNVKGBHGQPVEQA-LJQANCHMSA-N

>  <alias>  (47) 
None

>  <distance_score>  (47) 
1.459874

>  <ref_mols>  (47) 
7goy-a,7gp2-a

>  <smiles>  (47) 
CC(=O)N1Cc2[nH]c3ccccc3c2C[C@@H]1C(=O)NCCn1cc(Cl)c(C)n1

$$$$
P61045
     RDKit          3D

 28 31  0  0  0  0  0  0  0  0999 V2000
   -0.1140   -3.7735   29.1796 C   0  0  0  0  0  0  0  0  0  0  0  0
    0.2566   -2.8793   30.3320 C   0  0  0  0  0  0  0  0  0  0  0  0
    0.8284   -3.2853   31.3393 O   0  0  0  0  0  0  0  0  0  0  0  0
   -0.0052   -1.5470   30.1284 N   0  0  0  0  0  0  0  0  0  0  0  0
    0.9940   -0.7350   29.4351 C   0  0  0  0  0  0  0  0  0  0  0  0
    0.3007    0.3365   28.6687 C   0  0  0  0  0  0  0  0  0  0  0  0
    0.9281    1.2983   27.9303 N   0  0  0  0  0  0  0  0  0  0  0  0
    0.0025    2.1613   27.3869 C   0  0  0  0  0  0  0  0  0  0  0  0
    0.1926    3.2978   26.5894 C   0  0  0  0  0  0  0  0  0  0  0  0
   -0.9356    3.9752   26.1204 C   0  0  0  0  0  0  0  0  0  0  0  0
   -2.2093    3.5368   26.4424 C   0  0  0  0  0  0  0  0  0  0  0  0
   -2.3767    2.4073   27.2534 C   0  0  0  0  0  0  0  0  0  0  0  0
   -1.2630    1.7019   27.7518 C   0  0  0  0  0  0  0  0  0  0  0  0
   -1.0543    0.5860   28.6146 C   0  0  0  0  0  0  0  0  0  0  0  0
   -1.9968   -0.2570   29.3941 C   0  0  0  0  0  0  0  0  0  0  0  0
   -1.2602   -0.9126   30.5868 C   0  0  1  0  0  0  0  0  0  0  0  0
   -2.2962   -1.8085   31.3578 C   0  0  0  0  0  0  0  0  0  0  0  0
   -2.5135   -2.9202   31.0639 O   0  0  0  0  0  0  0  0  0  0  0  0
   -2.9600   -0.9011   32.4416 N   0  0  0  0  0  0  0  0  0  0  0  0
   -3.9622   -1.2125   33.4478 C   0  0  0  0  0  0  0  0  0  0  0  0
   -4.7704   -0.0078   33.8949 C   0  0  0  0  0  0  0  0  0  0  0  0
   -5.6315   -0.2620   35.0353 N   0  0  0  0  0  0  0  0  0  0  0  0
   -6.9312   -0.5519   34.8169 N   0  0  0  0  0  0  0  0  0  0  0  0
   -7.4986   -0.3819   36.0129 C   0  0  0  0  0  0  0  0  0  0  0  0
   -6.5539   -0.1049   37.0133 C   0  0  0  0  0  0  0  0  0  0  0  0
   -6.8930    0.1202   38.6556 Cl  0  0  0  0  0  0  0  0  0  0  0  0
   -5.3378   -0.0582   36.3648 C   0  0  0  0  0  0  0  0  0  0  0  0
   -3.9706    0.2058   36.8776 C   0  0  0  0  0  0  0  0  0  0  0  0
  1  2  1  0
  2  3  2  0
  2  4  1  0
  4  5  1  0
  5  6  1  0
  6  7  1  0
  7  8  1  0
  8  9  2  0
  9 10  1  0
 10 11  2  0
 11 12  1  0
 12 13  2  0
 13 14  1  0
 14 15  1  0
 15 16  1  0
 16 17  1  6
 17 18  2  0
 17 19  1  0
 19 20  1  0
 20 21  1  0
 21 22  1  0
 22 23  1  0
 23 24  2  0
 24 25  1  0
 25 26  1  0
 25 27  2  0
 27 28  1  0
 16  4  1  0
 27 22  1  0
 14  6  2  0
 13  8  1  0
M  END
>  <name>  (48) 
P61045

>  <HIPPO Compound ID>  (48) 
98395

>  <energy_score>  (48) 
-0.885972

>  <HIPPO Pose ID>  (48) 
61045

>  <inspiration_score>  (48) 
None

>  <ref_pdb>  (48) 
7go7-a

>  <inchikey>  (48) 
CZVJVVJIGVRCJM-IBGZPJMESA-N

>  <alias>  (48) 
None

>  <distance_score>  (48) 
1.425714

>  <ref_mols>  (48) 
7goy-a,7gp2-a

>  <smiles>  (48) 
CC(=O)N1Cc2[nH]c3ccccc3c2C[C@H]1C(=O)NCCn1ncc(Cl)c1C

$$$$
P61046
     RDKit          3D

 28 30  0  0  0  0  0  0  0  0999 V2000
    4.0472   -1.9841   32.2665 C   0  0  0  0  0  0  0  0  0  0  0  0
    2.5457   -1.8154   32.0775 C   0  0  0  0  0  0  0  0  0  0  0  0
    2.1727   -0.6403   31.1474 C   0  0  2  0  0  0  0  0  0  0  0  0
    2.4619    0.7252   31.7803 C   0  0  0  0  0  0  0  0  0  0  0  0
    2.3913    1.8404   30.8613 N   0  0  0  0  0  0  0  0  0  0  0  0
    2.5793    3.3569   31.1054 C   0  0  0  0  0  0  0  0  0  0  0  0
    2.7438    3.9481   32.0975 O   0  0  0  0  0  0  0  0  0  0  0  0
    2.4580    4.0595   29.7576 C   0  0  0  0  0  0  0  0  0  0  0  0
    1.0482    4.6072   29.5623 C   0  0  0  0  0  0  0  0  0  0  0  0
    0.1202    3.6556   28.8676 C   0  0  0  0  0  0  0  0  0  0  0  0
   -0.3963    2.4852   29.3843 C   0  0  0  0  0  0  0  0  0  0  0  0
   -1.2486    1.9414   28.4650 N   0  0  0  0  0  0  0  0  0  0  0  0
   -1.3404    2.7565   27.3718 C   0  0  0  0  0  0  0  0  0  0  0  0
   -2.1588    2.6536   26.2515 C   0  0  0  0  0  0  0  0  0  0  0  0
   -2.0904    3.6876   25.3148 C   0  0  0  0  0  0  0  0  0  0  0  0
   -2.9455    3.5332   24.2668 O   0  0  0  0  0  0  0  0  0  0  0  0
   -3.2460    4.6906   23.4957 C   0  0  0  0  0  0  0  0  0  0  0  0
   -1.2045    4.7500   25.4667 C   0  0  0  0  0  0  0  0  0  0  0  0
   -0.3896    4.8316   26.5975 C   0  0  0  0  0  0  0  0  0  0  0  0
   -0.4731    3.8286   27.5807 C   0  0  0  0  0  0  0  0  0  0  0  0
    0.7701   -0.7500   30.7333 N   0  0  0  0  0  0  0  0  0  0  0  0
   -0.2000   -0.8628   31.6797 N   0  0  0  0  0  0  0  0  0  0  0  0
   -1.3047   -1.1829   30.9860 C   0  0  0  0  0  0  0  0  0  0  0  0
   -2.5755   -1.4411   31.7079 C   0  0  0  0  0  0  0  0  0  0  0  0
   -1.0517   -1.1955   29.5952 C   0  0  0  0  0  0  0  0  0  0  0  0
   -2.1219   -1.4510   28.3246 Cl  0  0  0  0  0  0  0  0  0  0  0  0
    0.2689   -0.8797   29.4745 C   0  0  0  0  0  0  0  0  0  0  0  0
    1.2027   -0.6249   28.0786 Cl  0  0  0  0  0  0  0  0  0  0  0  0
  1  2  1  0
  3  2  1  1
  3  4  1  0
  4  5  1  0
  5  6  1  0
  6  7  2  0
  6  8  1  0
  8  9  1  0
  9 10  1  0
 10 11  2  0
 11 12  1  0
 12 13  1  0
 13 14  2  0
 14 15  1  0
 15 16  1  0
 16 17  1  0
 15 18  2  0
 18 19  1  0
 19 20  2  0
  3 21  1  0
 21 22  1  0
 22 23  2  0
 23 24  1  0
 23 25  1  0
 25 26  1  0
 25 27  2  0
 27 28  1  0
 20 10  1  0
 27 21  1  0
 20 13  1  0
M  END
>  <name>  (49) 
P61046

>  <HIPPO Compound ID>  (49) 
98405

>  <energy_score>  (49) 
-34.828882

>  <HIPPO Pose ID>  (49) 
61046

>  <inspiration_score>  (49) 
None

>  <ref_pdb>  (49) 
7go7-a

>  <inchikey>  (49) 
QODLEVPXFKAUSQ-CQSZACIVSA-N

>  <alias>  (49) 
None

>  <distance_score>  (49) 
1.23282

>  <ref_mols>  (49) 
7goy-a,7gp2-a

>  <smiles>  (49) 
CC[C@H](CNC(=O)CCc1c[nH]c2cc(OC)ccc12)n1nc(C)c(Cl)c1Cl

$$$$
P61049
     RDKit          3D

 28 30  0  0  0  0  0  0  0  0999 V2000
   -2.7897   -1.2588   32.0978 C   0  0  0  0  0  0  0  0  0  0  0  0
   -1.6391   -0.7985   31.2828 C   0  0  0  0  0  0  0  0  0  0  0  0
   -0.9874    0.3236   31.6126 N   0  0  0  0  0  0  0  0  0  0  0  0
    0.0653    0.3708   30.7554 N   0  0  0  0  0  0  0  0  0  0  0  0
    1.1342    1.3490   31.0182 C   0  0  1  0  0  0  0  0  0  0  0  0
    0.5376    2.7750   31.1723 C   0  0  0  0  0  0  0  0  0  0  0  0
    0.7313    3.6084   30.0045 N   0  0  0  0  0  0  0  0  0  0  0  0
    2.0302    4.0419   29.2838 C   0  0  0  0  0  0  0  0  0  0  0  0
    3.1476    3.8581   29.5642 O   0  0  0  0  0  0  0  0  0  0  0  0
    1.6247    4.8162   28.0304 C   0  0  0  0  0  0  0  0  0  0  0  0
    1.3796    3.9375   26.7922 C   0  0  1  0  0  0  0  0  0  0  0  0
    2.5416    2.9837   26.4998 C   0  0  0  0  0  0  0  0  0  0  0  0
    0.0484    3.2270   26.8344 C   0  0  0  0  0  0  0  0  0  0  0  0
   -0.2450    2.0607   27.5055 C   0  0  0  0  0  0  0  0  0  0  0  0
   -1.5651    1.7739   27.3658 N   0  0  0  0  0  0  0  0  0  0  0  0
   -2.1269    2.6996   26.5277 C   0  0  0  0  0  0  0  0  0  0  0  0
   -3.4212    2.7862   26.0318 C   0  0  0  0  0  0  0  0  0  0  0  0
   -3.7147    3.8104   25.1295 C   0  0  0  0  0  0  0  0  0  0  0  0
   -2.7682    4.7629   24.7855 C   0  0  0  0  0  0  0  0  0  0  0  0
   -1.4847    4.6904   25.3205 C   0  0  0  0  0  0  0  0  0  0  0  0
   -1.1478    3.6268   26.1810 C   0  0  0  0  0  0  0  0  0  0  0  0
    1.9994    0.9363   32.2524 C   0  0  0  0  0  0  0  0  0  0  0  0
    3.2560    1.8118   32.3768 C   0  0  0  0  0  0  0  0  0  0  0  0
    2.4556   -0.5298   32.1992 C   0  0  0  0  0  0  0  0  0  0  0  0
    0.0309   -0.6396   29.8177 C   0  0  0  0  0  0  0  0  0  0  0  0
    1.0166   -0.8937   28.7306 C   0  0  0  0  0  0  0  0  0  0  0  0
   -1.0478   -1.4174   30.1673 C   0  0  0  0  0  0  0  0  0  0  0  0
   -1.4928   -2.8711   29.4459 Cl  0  0  0  0  0  0  0  0  0  0  0  0
  1  2  1  0
  2  3  2  0
  3  4  1  0
  4  5  1  0
  5  6  1  1
  6  7  1  0
  7  8  1  0
  8  9  2  0
  8 10  1  0
 10 11  1  0
 11 12  1  1
 11 13  1  0
 13 14  2  0
 14 15  1  0
 15 16  1  0
 16 17  2  0
 17 18  1  0
 18 19  2  0
 19 20  1  0
 20 21  2  0
  5 22  1  0
 22 23  1  0
 22 24  1  0
  4 25  1  0
 25 26  1  0
 25 27  2  0
 27 28  1  0
 27  2  1  0
 21 13  1  0
 21 16  1  0
M  END
>  <name>  (50) 
P61049

>  <HIPPO Compound ID>  (50) 
98417

>  <energy_score>  (50) 
-32.175669

>  <HIPPO Pose ID>  (50) 
61049

>  <inspiration_score>  (50) 
None

>  <ref_pdb>  (50) 
7go7-a

>  <inchikey>  (50) 
AHMRLMLIMRQZHB-VLIAUNLRSA-N

>  <alias>  (50) 
None

>  <distance_score>  (50) 
1.640692

>  <ref_mols>  (50) 
7goy-a,7gp2-a

>  <smiles>  (50) 
Cc1nn([C@@H](CNC(=O)C[C@@H](C)c2c[nH]c3ccccc23)C(C)C)c(C)c1Cl

$$$$
P61053
     RDKit          3D

 28 31  0  0  0  0  0  0  0  0999 V2000
   -4.2129    1.8747   34.2002 C   0  0  0  0  0  0  0  0  0  0  0  0
   -4.7500    0.6700   33.4253 C   0  0  0  0  0  0  0  0  0  0  0  0
   -4.4905   -0.6865   34.1202 C   0  0  1  0  0  0  0  0  0  0  0  0
   -2.9754   -0.9882   34.2153 C   0  0  0  0  0  0  0  0  0  0  0  0
   -2.2416   -0.9286   32.9585 N   0  0  0  0  0  0  0  0  0  0  0  0
   -2.3447   -1.8155   31.6871 C   0  0  0  0  0  0  0  0  0  0  0  0
   -3.0872   -2.6804   31.4248 O   0  0  0  0  0  0  0  0  0  0  0  0
   -1.2644   -1.2816   30.6800 C   0  0  1  0  0  0  0  0  0  0  0  0
   -1.9809   -0.5128   29.5499 C   0  0  0  0  0  0  0  0  0  0  0  0
   -1.1533    0.5572   28.9451 C   0  0  0  0  0  0  0  0  0  0  0  0
   -0.0307    0.9874   29.6020 C   0  0  0  0  0  0  0  0  0  0  0  0
    0.4676    2.0660   28.9304 N   0  0  0  0  0  0  0  0  0  0  0  0
   -0.3999    2.4342   27.9281 C   0  0  0  0  0  0  0  0  0  0  0  0
   -0.3952    3.5694   27.1079 C   0  0  0  0  0  0  0  0  0  0  0  0
   -1.4351    3.7142   26.1862 C   0  0  0  0  0  0  0  0  0  0  0  0
   -2.4187    2.7420   26.0644 C   0  0  0  0  0  0  0  0  0  0  0  0
   -2.3871    1.5960   26.8734 C   0  0  0  0  0  0  0  0  0  0  0  0
   -1.3896    1.4514   27.8576 C   0  0  0  0  0  0  0  0  0  0  0  0
    0.3893    0.4627   30.8603 C   0  0  0  0  0  0  0  0  0  0  0  0
   -0.2182   -0.5143   31.4446 N   0  0  0  0  0  0  0  0  0  0  0  0
   -5.2815   -0.7326   35.3607 N   0  0  0  0  0  0  0  0  0  0  0  0
   -6.6387   -0.7128   35.1968 N   0  0  0  0  0  0  0  0  0  0  0  0
   -7.1233   -0.3417   36.3890 C   0  0  0  0  0  0  0  0  0  0  0  0
   -8.5779   -0.1057   36.5604 C   0  0  0  0  0  0  0  0  0  0  0  0
   -6.1024   -0.2630   37.3590 C   0  0  0  0  0  0  0  0  0  0  0  0
   -6.3033    0.1062   39.0008 Cl  0  0  0  0  0  0  0  0  0  0  0  0
   -4.9493   -0.5665   36.6808 C   0  0  0  0  0  0  0  0  0  0  0  0
   -3.3693   -0.7077   37.2931 Cl  0  0  0  0  0  0  0  0  0  0  0  0
  1  2  1  0
  3  2  1  1
  3  4  1  0
  4  5  1  0
  5  6  1  0
  6  7  2  0
  8  6  1  1
  8  9  1  0
  9 10  1  0
 10 11  2  0
 11 12  1  0
 12 13  1  0
 13 14  2  0
 14 15  1  0
 15 16  2  0
 16 17  1  0
 17 18  2  0
 11 19  1  0
 19 20  2  0
  3 21  1  0
 21 22  1  0
 22 23  2  0
 23 24  1  0
 23 25  1  0
 25 26  1  0
 25 27  2  0
 27 28  1  0
 20  8  1  0
 27 21  1  0
 18 10  1  0
 18 13  1  0
M  END
>  <name>  (51) 
P61053

>  <HIPPO Compound ID>  (51) 
98424

>  <energy_score>  (51) 
-20.702203

>  <HIPPO Pose ID>  (51) 
61053

>  <inspiration_score>  (51) 
None

>  <ref_pdb>  (51) 
7go7-a

>  <inchikey>  (51) 
UAQZSTJSMYWIFJ-BLLLJJGKSA-N

>  <alias>  (51) 
None

>  <distance_score>  (51) 
1.041796

>  <ref_mols>  (51) 
7goy-a,7gp2-a

>  <smiles>  (51) 
CC[C@@H](CNC(=O)[C@H]1Cc2c([nH]c3ccccc23)C=N1)n1nc(C)c(Cl)c1Cl

$$$$
P61057
     RDKit          3D

 28 31  0  0  0  0  0  0  0  0999 V2000
   -7.8482    2.3549   37.2801 C   0  0  0  0  0  0  0  0  0  0  0  0
   -7.4916    1.2462   36.3626 C   0  0  0  0  0  0  0  0  0  0  0  0
   -6.2073    0.9817   36.0878 N   0  0  0  0  0  0  0  0  0  0  0  0
   -6.2569   -0.0526   35.2208 N   0  0  0  0  0  0  0  0  0  0  0  0
   -5.0230   -0.7558   34.8541 C   0  0  2  0  0  0  0  0  0  0  0  0
   -4.0733   -0.8649   36.0567 C   0  0  0  0  0  0  0  0  0  0  0  0
   -4.3142   -0.1218   33.6387 C   0  0  0  0  0  0  0  0  0  0  0  0
   -4.5767    0.9304   33.1925 O   0  0  0  0  0  0  0  0  0  0  0  0
   -3.1805   -1.1363   33.2504 N   0  0  0  0  0  0  0  0  0  0  0  0
   -2.2804   -1.0978   32.2530 N   0  0  0  0  0  0  0  0  0  0  0  0
   -1.9465   -2.1451   31.1550 C   0  0  0  0  0  0  0  0  0  0  0  0
   -2.3487   -3.2306   30.9973 O   0  0  0  0  0  0  0  0  0  0  0  0
   -0.9814   -1.4292   30.1738 C   0  0  1  0  0  0  0  0  0  0  0  0
   -1.8259   -0.6013   29.1822 C   0  0  0  0  0  0  0  0  0  0  0  0
   -1.0896    0.5701   28.6555 C   0  0  0  0  0  0  0  0  0  0  0  0
    0.0246    1.0174   29.3183 C   0  0  0  0  0  0  0  0  0  0  0  0
    0.4366    2.1745   28.7257 N   0  0  0  0  0  0  0  0  0  0  0  0
   -0.4718    2.5565   27.7664 C   0  0  0  0  0  0  0  0  0  0  0  0
   -0.5433    3.7384   27.0202 C   0  0  0  0  0  0  0  0  0  0  0  0
   -1.6104    3.8842   26.1308 C   0  0  0  0  0  0  0  0  0  0  0  0
   -2.5530    2.8762   25.9759 C   0  0  0  0  0  0  0  0  0  0  0  0
   -2.4520    1.6899   26.7173 C   0  0  0  0  0  0  0  0  0  0  0  0
   -1.4132    1.5307   27.6544 C   0  0  0  0  0  0  0  0  0  0  0  0
    0.5176    0.4195   30.5152 C   0  0  0  0  0  0  0  0  0  0  0  0
    0.0010   -0.6548   31.0068 N   0  0  0  0  0  0  0  0  0  0  0  0
   -7.5341   -0.4703   34.9625 C   0  0  0  0  0  0  0  0  0  0  0  0
   -8.3549    0.3386   35.7104 C   0  0  0  0  0  0  0  0  0  0  0  0
  -10.0400    0.2559   35.8630 Cl  0  0  0  0  0  0  0  0  0  0  0  0
  1  2  1  0
  2  3  2  0
  3  4  1  0
  4  5  1  0
  5  6  1  1
  5  7  1  0
  7  8  2  0
  7  9  1  0
  9 10  1  0
 10 11  1  0
 11 12  2  0
 13 11  1  1
 13 14  1  0
 14 15  1  0
 15 16  2  0
 16 17  1  0
 17 18  1  0
 18 19  2  0
 19 20  1  0
 20 21  2  0
 21 22  1  0
 22 23  2  0
 16 24  1  0
 24 25  2  0
  4 26  1  0
 26 27  2  0
 27 28  1  0
 27  2  1  0
 25 13  1  0
 23 15  1  0
 23 18  1  0
M  END
>  <name>  (52) 
P61057

>  <HIPPO Compound ID>  (52) 
98426

>  <energy_score>  (52) 
-13.669326

>  <HIPPO Pose ID>  (52) 
61057

>  <inspiration_score>  (52) 
None

>  <ref_pdb>  (52) 
7go7-a

>  <inchikey>  (52) 
QRYFKMIHDIMLIK-BDJLRTHQSA-N

>  <alias>  (52) 
None

>  <distance_score>  (52) 
1.205739

>  <ref_mols>  (52) 
7goy-a,7gp2-a

>  <smiles>  (52) 
Cc1nn([C@H](C)C(=O)NNC(=O)[C@H]2Cc3c([nH]c4ccccc34)C=N2)cc1Cl

$$$$
P61059
     RDKit          3D

 28 31  0  0  0  0  0  0  0  0999 V2000
   -7.1923    0.6166   35.0340 C   0  0  0  0  0  0  0  0  0  0  0  0
   -5.9954   -0.0933   34.6885 N   0  0  0  0  0  0  0  0  0  0  0  0
   -4.8256    0.3004   33.7437 C   0  0  0  0  0  0  0  0  0  0  0  0
   -4.6218    1.2971   33.1625 O   0  0  0  0  0  0  0  0  0  0  0  0
   -3.8652   -0.9265   33.6505 C   0  0  2  0  0  0  0  0  0  0  0  0
   -3.1174   -1.2542   34.9353 C   0  0  0  0  0  0  0  0  0  0  0  0
   -2.5234   -0.0974   35.5744 N   0  0  0  0  0  0  0  0  0  0  0  0
   -1.3266    0.4852   35.2763 C   0  0  0  0  0  0  0  0  0  0  0  0
   -1.1981    1.5381   36.1473 C   0  0  0  0  0  0  0  0  0  0  0  0
    0.0653    2.6542   36.2606 Cl  0  0  0  0  0  0  0  0  0  0  0  0
   -2.3557    1.4947   36.9444 C   0  0  0  0  0  0  0  0  0  0  0  0
   -3.1692    0.4877   36.6036 N   0  0  0  0  0  0  0  0  0  0  0  0
   -2.9596   -0.6325   32.5644 N   0  0  0  0  0  0  0  0  0  0  0  0
   -2.5862   -1.4685   31.3067 C   0  0  0  0  0  0  0  0  0  0  0  0
   -2.8954   -2.5515   30.9996 O   0  0  0  0  0  0  0  0  0  0  0  0
   -1.7657   -0.4813   30.4630 C   0  0  2  0  0  0  0  0  0  0  0  0
   -1.6123   -0.7919   28.9608 C   0  0  0  0  0  0  0  0  0  0  0  0
   -0.9589    0.4451   28.4295 C   0  0  0  0  0  0  0  0  0  0  0  0
    0.0540    0.9868   29.1918 C   0  0  0  0  0  0  0  0  0  0  0  0
    0.4743    2.1350   28.5934 N   0  0  0  0  0  0  0  0  0  0  0  0
   -0.4468    2.5016   27.6365 C   0  0  0  0  0  0  0  0  0  0  0  0
   -0.5799    3.7109   26.9445 C   0  0  0  0  0  0  0  0  0  0  0  0
   -1.6679    3.8502   26.0807 C   0  0  0  0  0  0  0  0  0  0  0  0
   -2.5742    2.8132   25.9017 C   0  0  0  0  0  0  0  0  0  0  0  0
   -2.4092    1.5970   26.5820 C   0  0  0  0  0  0  0  0  0  0  0  0
   -1.3385    1.4342   27.4808 C   0  0  0  0  0  0  0  0  0  0  0  0
    0.3977    0.4685   30.4858 C   0  0  0  0  0  0  0  0  0  0  0  0
   -0.4417   -0.2637   31.1537 N   0  0  0  0  0  0  0  0  0  0  0  0
  1  2  1  0
  2  3  1  0
  3  4  2  0
  3  5  1  0
  5  6  1  1
  6  7  1  0
  7  8  1  0
  8  9  2  0
  9 10  1  0
  9 11  1  0
 11 12  2  0
  5 13  1  0
 13 14  1  0
 14 15  2  0
 16 14  1  1
 16 17  1  0
 17 18  1  0
 18 19  2  0
 19 20  1  0
 20 21  1  0
 21 22  2  0
 22 23  1  0
 23 24  2  0
 24 25  1  0
 25 26  2  0
 19 27  1  0
 27 28  2  0
 12  7  1  0
 28 16  1  0
 26 18  1  0
 26 21  1  0
M  END
>  <name>  (53) 
P61059

>  <HIPPO Compound ID>  (53) 
98428

>  <energy_score>  (53) 
-4.02715

>  <HIPPO Pose ID>  (53) 
61059

>  <inspiration_score>  (53) 
None

>  <ref_pdb>  (53) 
7go7-a

>  <inchikey>  (53) 
IOBIALKZYXQYFZ-RDJZCZTQSA-N

>  <alias>  (53) 
None

>  <distance_score>  (53) 
1.125431

>  <ref_mols>  (53) 
7goy-a,7gp2-a

>  <smiles>  (53) 
CNC(=O)[C@H](Cn1cc(Cl)cn1)NC(=O)[C@@H]1Cc2c([nH]c3ccccc23)C=N1

$$$$
P61063
     RDKit          3D

 28 30  0  0  0  0  0  0  0  0999 V2000
    1.0302   -1.1350   28.0196 C   0  0  0  0  0  0  0  0  0  0  0  0
    0.3687   -1.2809   29.3344 C   0  0  0  0  0  0  0  0  0  0  0  0
    0.3080   -0.2330   30.1675 N   0  0  0  0  0  0  0  0  0  0  0  0
   -0.5362   -0.6489   31.1401 N   0  0  0  0  0  0  0  0  0  0  0  0
   -1.2805    0.3682   31.8574 C   0  0  1  0  0  0  0  0  0  0  0  0
   -0.4513    1.5834   32.2658 C   0  0  0  0  0  0  0  0  0  0  0  0
   -2.4718    0.7631   30.9776 C   0  0  0  0  0  0  0  0  0  0  0  0
   -3.5585    0.8391   31.4182 O   0  0  0  0  0  0  0  0  0  0  0  0
   -1.9279    1.1109   29.5441 N   0  0  0  0  0  0  0  0  0  0  0  0
   -2.5499    1.6687   28.4814 N   0  0  0  0  0  0  0  0  0  0  0  0
   -2.7445    1.1389   27.0368 C   0  0  0  0  0  0  0  0  0  0  0  0
   -2.4656    0.1094   26.5657 O   0  0  0  0  0  0  0  0  0  0  0  0
   -3.3141    2.3027   26.2208 C   0  0  0  0  0  0  0  0  0  0  0  0
   -2.1810    2.9622   25.4205 C   0  0  1  0  0  0  0  0  0  0  0  0
   -2.7102    4.0915   24.5450 C   0  0  0  0  0  0  0  0  0  0  0  0
   -1.0555    3.3040   26.3471 C   0  0  0  0  0  0  0  0  0  0  0  0
   -0.1108    2.3877   26.7832 C   0  0  0  0  0  0  0  0  0  0  0  0
    0.6110    2.9475   27.7909 N   0  0  0  0  0  0  0  0  0  0  0  0
    0.2398    4.2575   27.9385 C   0  0  0  0  0  0  0  0  0  0  0  0
    0.7481    5.2289   28.7990 C   0  0  0  0  0  0  0  0  0  0  0  0
    0.2336    6.5226   28.7027 C   0  0  0  0  0  0  0  0  0  0  0  0
   -0.7805    6.8189   27.7987 C   0  0  0  0  0  0  0  0  0  0  0  0
   -1.3182    5.8230   26.9748 C   0  0  0  0  0  0  0  0  0  0  0  0
   -0.7843    4.5217   27.0249 C   0  0  0  0  0  0  0  0  0  0  0  0
   -0.9044   -1.9650   31.0263 C   0  0  0  0  0  0  0  0  0  0  0  0
   -1.8397   -2.6240   31.9697 C   0  0  0  0  0  0  0  0  0  0  0  0
   -0.3087   -2.4026   29.8627 C   0  0  0  0  0  0  0  0  0  0  0  0
   -0.3868   -3.9379   29.1515 Cl  0  0  0  0  0  0  0  0  0  0  0  0
  1  2  1  0
  2  3  2  0
  3  4  1  0
  4  5  1  0
  5  6  1  6
  5  7  1  0
  7  8  2  0
  7  9  1  0
  9 10  1  0
 10 11  1  0
 11 12  2  0
 11 13  1  0
 13 14  1  0
 14 15  1  1
 14 16  1  0
 16 17  2  0
 17 18  1  0
 18 19  1  0
 19 20  2  0
 20 21  1  0
 21 22  2  0
 22 23  1  0
 23 24  2  0
  4 25  1  0
 25 26  1  0
 25 27  2  0
 27 28  1  0
 27  2  1  0
 24 16  1  0
 24 19  1  0
M  END
>  <name>  (54) 
P61063

>  <HIPPO Compound ID>  (54) 
98438

>  <energy_score>  (54) 
-24.071535

>  <HIPPO Pose ID>  (54) 
61063

>  <inspiration_score>  (54) 
None

>  <ref_pdb>  (54) 
7go7-a

>  <inchikey>  (54) 
ZBAVULYASPKMFA-RISCZKNCSA-N

>  <alias>  (54) 
None

>  <distance_score>  (54) 
1.829739

>  <ref_mols>  (54) 
7goy-a,7gp2-a

>  <smiles>  (54) 
Cc1nn([C@@H](C)C(=O)NNC(=O)C[C@@H](C)c2c[nH]c3ccccc23)c(C)c1Cl

$$$$
P61064
     RDKit          3D

 28 30  0  0  0  0  0  0  0  0999 V2000
   -2.5613   -1.3447   32.4435 C   0  0  0  0  0  0  0  0  0  0  0  0
   -1.7653   -0.9996   31.2413 C   0  0  0  0  0  0  0  0  0  0  0  0
   -1.7850    0.2462   30.7477 N   0  0  0  0  0  0  0  0  0  0  0  0
   -1.0270    0.1641   29.6332 N   0  0  0  0  0  0  0  0  0  0  0  0
   -1.0498    1.2561   28.6719 C   0  0  0  0  0  0  0  0  0  0  0  0
   -2.3866    1.2566   27.9515 C   0  0  0  0  0  0  0  0  0  0  0  0
   -2.4449    2.0072   26.7268 N   0  0  0  0  0  0  0  0  0  0  0  0
   -3.6525    2.6707   26.0062 C   0  0  0  0  0  0  0  0  0  0  0  0
   -4.7921    2.6421   26.2580 O   0  0  0  0  0  0  0  0  0  0  0  0
   -3.1248    3.4922   24.8147 C   0  0  0  0  0  0  0  0  0  0  0  0
   -2.2258    4.6795   25.1955 C   0  0  1  0  0  0  0  0  0  0  0  0
   -0.8890    4.1883   25.7046 C   0  0  0  0  0  0  0  0  0  0  0  0
   -0.0190    3.2784   25.1296 C   0  0  0  0  0  0  0  0  0  0  0  0
    0.9468    2.9574   26.0459 N   0  0  0  0  0  0  0  0  0  0  0  0
    0.7764    3.7063   27.1810 C   0  0  0  0  0  0  0  0  0  0  0  0
    1.5277    3.7395   28.3571 C   0  0  0  0  0  0  0  0  0  0  0  0
    1.1554    4.6631   29.3335 C   0  0  0  0  0  0  0  0  0  0  0  0
    2.1441    4.7594   30.9430 Br  0  0  0  0  0  0  0  0  0  0  0  0
    0.0731    5.5097   29.1409 C   0  0  0  0  0  0  0  0  0  0  0  0
   -0.6923    5.4334   27.9682 C   0  0  0  0  0  0  0  0  0  0  0  0
   -0.3328    4.5199   26.9706 C   0  0  0  0  0  0  0  0  0  0  0  0
   -2.1275    5.7340   24.0581 C   0  0  0  0  0  0  0  0  0  0  0  0
   -1.5134    5.2134   22.7566 C   0  0  0  0  0  0  0  0  0  0  0  0
   -1.3906    6.9990   24.5117 C   0  0  0  0  0  0  0  0  0  0  0  0
   -0.4713   -1.0719   29.4347 C   0  0  0  0  0  0  0  0  0  0  0  0
    0.4088   -1.3809   28.2844 C   0  0  0  0  0  0  0  0  0  0  0  0
   -0.9508   -1.8523   30.4615 C   0  0  0  0  0  0  0  0  0  0  0  0
   -0.6587   -3.4974   30.7518 Cl  0  0  0  0  0  0  0  0  0  0  0  0
  1  2  1  0
  2  3  2  0
  3  4  1  0
  4  5  1  0
  5  6  1  0
  6  7  1  0
  7  8  1  0
  8  9  2  0
  8 10  1  0
 11 10  1  6
 11 12  1  0
 12 13  2  0
 13 14  1  0
 14 15  1  0
 15 16  2  0
 16 17  1  0
 17 18  1  0
 17 19  2  0
 19 20  1  0
 20 21  2  0
 11 22  1  0
 22 23  1  0
 22 24  1  0
  4 25  1  0
 25 26  1  0
 25 27  2  0
 27 28  1  0
 27  2  1  0
 21 12  1  0
 21 15  1  0
M  END
>  <name>  (55) 
P61064

>  <HIPPO Compound ID>  (55) 
98441

>  <energy_score>  (55) 
-22.267733

>  <HIPPO Pose ID>  (55) 
61064

>  <inspiration_score>  (55) 
None

>  <ref_pdb>  (55) 
7go7-a

>  <inchikey>  (55) 
VOTKYBMPRYVACX-QGZVFWFLSA-N

>  <alias>  (55) 
None

>  <distance_score>  (55) 
1.99592

>  <ref_mols>  (55) 
7goy-a,7gp2-a

>  <smiles>  (55) 
Cc1nn(CCNC(=O)C[C@@H](c2c[nH]c3cc(Br)ccc23)C(C)C)c(C)c1Cl

$$$$
P61067
     RDKit          3D

 28 30  0  0  0  0  0  0  0  0999 V2000
    2.0930    3.9433   24.7544 C   0  0  0  0  0  0  0  0  0  0  0  0
    1.8135    4.9021   25.9063 C   0  0  0  0  0  0  0  0  0  0  0  0
    1.3646    4.1935   27.1992 C   0  0  1  0  0  0  0  0  0  0  0  0
    1.1970    5.1960   28.3570 C   0  0  0  0  0  0  0  0  0  0  0  0
    1.6703    4.5595   29.6627 C   0  0  0  0  0  0  0  0  0  0  0  0
    2.7647    4.6824   30.0478 O   0  0  0  0  0  0  0  0  0  0  0  0
    0.4990    3.7153   30.2220 N   0  0  0  0  0  0  0  0  0  0  0  0
    0.4059    2.9228   31.4240 C   0  0  0  0  0  0  0  0  0  0  0  0
    0.9799    1.5176   31.2511 C   0  0  0  0  0  0  0  0  0  0  0  0
   -0.0186    0.5032   30.9414 N   0  0  0  0  0  0  0  0  0  0  0  0
    0.0569   -0.4473   29.9676 C   0  0  0  0  0  0  0  0  0  0  0  0
   -0.9062   -1.3792   30.2618 C   0  0  0  0  0  0  0  0  0  0  0  0
   -1.1642   -2.8286   29.4349 Cl  0  0  0  0  0  0  0  0  0  0  0  0
   -1.5274   -0.9221   31.4479 C   0  0  0  0  0  0  0  0  0  0  0  0
   -2.5187   -1.6547   32.3049 C   0  0  0  0  0  0  0  0  0  0  0  0
   -3.4442   -0.8206   32.8525 F   0  0  0  0  0  0  0  0  0  0  0  0
   -3.2152   -2.6133   31.6304 F   0  0  0  0  0  0  0  0  0  0  0  0
   -1.8919   -2.2810   33.3345 F   0  0  0  0  0  0  0  0  0  0  0  0
   -1.0218    0.2790   31.8146 N   0  0  0  0  0  0  0  0  0  0  0  0
    0.1294    3.3314   27.0488 C   0  0  0  0  0  0  0  0  0  0  0  0
    0.0443    2.0222   27.4812 C   0  0  0  0  0  0  0  0  0  0  0  0
   -1.2119    1.5503   27.2342 N   0  0  0  0  0  0  0  0  0  0  0  0
   -1.9325    2.5016   26.5548 C   0  0  0  0  0  0  0  0  0  0  0  0
   -3.2219    2.4428   26.0285 C   0  0  0  0  0  0  0  0  0  0  0  0
   -3.6960    3.5536   25.3331 C   0  0  0  0  0  0  0  0  0  0  0  0
   -2.9231    4.6966   25.1997 C   0  0  0  0  0  0  0  0  0  0  0  0
   -1.6559    4.7629   25.7762 C   0  0  0  0  0  0  0  0  0  0  0  0
   -1.1286    3.6376   26.4401 C   0  0  0  0  0  0  0  0  0  0  0  0
  1  2  1  0
  3  2  1  6
  3  4  1  0
  4  5  1  0
  5  6  2  0
  5  7  1  0
  7  8  1  0
  8  9  1  0
  9 10  1  0
 10 11  1  0
 11 12  2  0
 12 13  1  0
 12 14  1  0
 14 15  1  0
 15 16  1  0
 15 17  1  0
 15 18  1  0
 14 19  2  0
  3 20  1  0
 20 21  2  0
 21 22  1  0
 22 23  1  0
 23 24  2  0
 24 25  1  0
 25 26  2  0
 26 27  1  0
 27 28  2  0
 19 10  1  0
 28 20  1  0
 28 23  1  0
M  END
>  <name>  (56) 
P61067

>  <HIPPO Compound ID>  (56) 
98458

>  <energy_score>  (56) 
-20.927524

>  <HIPPO Pose ID>  (56) 
61067

>  <inspiration_score>  (56) 
None

>  <ref_pdb>  (56) 
7go7-a

>  <inchikey>  (56) 
XBBZFHMMIPTWNE-LBPRGKRZSA-N

>  <alias>  (56) 
None

>  <distance_score>  (56) 
1.025942

>  <ref_mols>  (56) 
7goy-a,7gp2-a

>  <smiles>  (56) 
CC[C@@H](CC(=O)NCCn1cc(Cl)c(C(F)(F)F)n1)c1c[nH]c2ccccc12

$$$$
P61068
     RDKit          3D

 28 30  0  0  0  0  0  0  0  0999 V2000
   -0.7901    1.8221   29.9397 C   0  0  0  0  0  0  0  0  0  0  0  0
   -0.8959    2.4550   28.6068 C   0  0  0  0  0  0  0  0  0  0  0  0
   -1.7210    1.8838   27.6778 N   0  0  0  0  0  0  0  0  0  0  0  0
   -1.9678    2.7784   26.6772 C   0  0  0  0  0  0  0  0  0  0  0  0
   -2.9391    2.7500   25.6829 C   0  0  0  0  0  0  0  0  0  0  0  0
   -2.9791    3.7978   24.7599 C   0  0  0  0  0  0  0  0  0  0  0  0
   -2.0799    4.8504   24.8459 C   0  0  0  0  0  0  0  0  0  0  0  0
   -1.1465    4.8915   25.8848 C   0  0  0  0  0  0  0  0  0  0  0  0
   -1.0962    3.8454   26.8315 C   0  0  0  0  0  0  0  0  0  0  0  0
   -0.4146    3.6519   28.0801 C   0  0  0  0  0  0  0  0  0  0  0  0
    0.4367    4.7196   28.7486 C   0  0  0  0  0  0  0  0  0  0  0  0
    1.9254    4.4055   28.9539 C   0  0  0  0  0  0  0  0  0  0  0  0
    2.0491    3.6127   30.2430 C   0  0  0  0  0  0  0  0  0  0  0  0
    1.9286    4.0973   31.2979 O   0  0  0  0  0  0  0  0  0  0  0  0
    2.2433    2.1314   29.8355 N   0  0  0  0  0  0  0  0  0  0  0  0
    2.2343    1.0198   30.5765 N   0  0  0  0  0  0  0  0  0  0  0  0
    2.9643   -0.3357   30.3697 C   0  0  0  0  0  0  0  0  0  0  0  0
    3.7439   -0.6596   29.5636 O   0  0  0  0  0  0  0  0  0  0  0  0
    2.3726   -1.2741   31.4124 C   0  0  0  0  0  0  0  0  0  0  0  0
    0.9651   -1.5010   31.0600 N   0  0  0  0  0  0  0  0  0  0  0  0
    0.4858   -1.7572   29.8015 C   0  0  0  0  0  0  0  0  0  0  0  0
   -0.8807   -1.7268   29.8916 C   0  0  0  0  0  0  0  0  0  0  0  0
   -1.9441   -1.7948   28.5951 Cl  0  0  0  0  0  0  0  0  0  0  0  0
   -1.1469   -1.5500   31.2589 C   0  0  0  0  0  0  0  0  0  0  0  0
   -2.4225   -1.5778   31.9325 N   0  0  0  0  0  0  0  0  0  0  0  0
   -3.1754   -2.5200   31.6343 O   0  0  0  0  0  0  0  0  0  0  0  0
   -2.6943   -0.6458   32.7037 O   0  0  0  0  0  0  0  0  0  0  0  0
   -0.0235   -1.3250   31.9748 N   0  0  0  0  0  0  0  0  0  0  0  0
  1  2  1  0
  2  3  1  0
  3  4  1  0
  4  5  2  0
  5  6  1  0
  6  7  2  0
  7  8  1  0
  8  9  2  0
  9 10  1  0
 10 11  1  0
 11 12  1  0
 12 13  1  0
 13 14  2  0
 13 15  1  0
 15 16  1  0
 16 17  1  0
 17 18  2  0
 17 19  1  0
 19 20  1  0
 20 21  1  0
 21 22  2  0
 22 23  1  0
 22 24  1  0
 24 25  1  0
 25 26  2  0
 25 27  1  0
 24 28  2  0
 10  2  2  0
 28 20  1  0
  9  4  1  0
M  CHG  2  25   1  27  -1
M  END
>  <name>  (57) 
P61068

>  <HIPPO Compound ID>  (57) 
98467

>  <energy_score>  (57) 
-16.538752

>  <HIPPO Pose ID>  (57) 
61068

>  <inspiration_score>  (57) 
None

>  <ref_pdb>  (57) 
7go7-a

>  <inchikey>  (57) 
OGUZUZFWLCUOQS-UHFFFAOYSA-N

>  <alias>  (57) 
None

>  <distance_score>  (57) 
1.910078

>  <ref_mols>  (57) 
7goy-a,7gp2-a

>  <smiles>  (57) 
Cc1[nH]c2ccccc2c1CCC(=O)NNC(=O)Cn1cc(Cl)c([N+](=O)[O-])n1

$$$$
P61069
     RDKit          3D

 29 31  0  0  0  0  0  0  0  0999 V2000
    2.5848   -3.5806   32.1381 C   0  0  0  0  0  0  0  0  0  0  0  0
    3.1503   -2.6081   31.1112 C   0  0  0  0  0  0  0  0  0  0  0  0
    2.4578   -1.2349   31.1291 C   0  0  1  0  0  0  0  0  0  0  0  0
    3.1708   -0.2189   30.2141 C   0  0  0  0  0  0  0  0  0  0  0  0
    4.1158   -0.4657   29.5700 O   0  0  0  0  0  0  0  0  0  0  0  0
    2.3066    1.0775   30.2844 N   0  0  0  0  0  0  0  0  0  0  0  0
    2.3702    2.2076   29.5617 N   0  0  0  0  0  0  0  0  0  0  0  0
    2.3175    2.4256   28.0190 C   0  0  0  0  0  0  0  0  0  0  0  0
    2.2890    1.6497   27.1453 O   0  0  0  0  0  0  0  0  0  0  0  0
    2.1943    3.9175   27.7766 C   0  0  0  0  0  0  0  0  0  0  0  0
    0.8118    4.4263   28.2200 C   0  0  0  0  0  0  0  0  0  0  0  0
   -0.3659    3.6160   27.7300 C   0  0  0  0  0  0  0  0  0  0  0  0
   -0.9675    2.5355   28.3630 C   0  0  0  0  0  0  0  0  0  0  0  0
   -0.7324    1.8878   29.6651 C   0  0  0  0  0  0  0  0  0  0  0  0
   -1.9727    2.0801   27.5620 N   0  0  0  0  0  0  0  0  0  0  0  0
   -2.1799    2.9656   26.5447 C   0  0  0  0  0  0  0  0  0  0  0  0
   -3.2161    3.0242   25.6201 C   0  0  0  0  0  0  0  0  0  0  0  0
   -3.1781    4.0261   24.6475 C   0  0  0  0  0  0  0  0  0  0  0  0
   -2.1403    4.9479   24.6170 C   0  0  0  0  0  0  0  0  0  0  0  0
   -1.1280    4.8985   25.5795 C   0  0  0  0  0  0  0  0  0  0  0  0
   -1.1519    3.8978   26.5716 C   0  0  0  0  0  0  0  0  0  0  0  0
    1.0294   -1.3366   30.7644 N   0  0  0  0  0  0  0  0  0  0  0  0
    0.1070   -1.1312   31.7449 N   0  0  0  0  0  0  0  0  0  0  0  0
   -1.0721   -1.3658   31.1480 C   0  0  0  0  0  0  0  0  0  0  0  0
   -2.3336   -1.3523   31.9305 C   0  0  0  0  0  0  0  0  0  0  0  0
   -0.9048   -1.5373   29.7607 C   0  0  0  0  0  0  0  0  0  0  0  0
   -2.0894   -1.6515   28.5740 Cl  0  0  0  0  0  0  0  0  0  0  0  0
    0.4480   -1.4972   29.5281 C   0  0  0  0  0  0  0  0  0  0  0  0
    1.1410   -1.5400   28.2132 C   0  0  0  0  0  0  0  0  0  0  0  0
  1  2  1  0
  3  2  1  6
  3  4  1  0
  4  5  2  0
  4  6  1  0
  6  7  1  0
  7  8  1  0
  8  9  2  0
  8 10  1  0
 10 11  1  0
 11 12  1  0
 12 13  2  0
 13 14  1  0
 13 15  1  0
 15 16  1  0
 16 17  2  0
 17 18  1  0
 18 19  2  0
 19 20  1  0
 20 21  2  0
  3 22  1  0
 22 23  1  0
 23 24  2  0
 24 25  1  0
 24 26  1  0
 26 27  1  0
 26 28  2  0
 28 29  1  0
 21 12  1  0
 28 22  1  0
 21 16  1  0
M  END
>  <name>  (58) 
P61069

>  <HIPPO Compound ID>  (58) 
98477

>  <energy_score>  (58) 
-12.961459

>  <HIPPO Pose ID>  (58) 
61069

>  <inspiration_score>  (58) 
None

>  <ref_pdb>  (58) 
7go7-a

>  <inchikey>  (58) 
JWWFULHZXFWEAF-SFHVURJKSA-N

>  <alias>  (58) 
None

>  <distance_score>  (58) 
1.880037

>  <ref_mols>  (58) 
7goy-a,7gp2-a

>  <smiles>  (58) 
CC[C@@H](C(=O)NNC(=O)CCc1c(C)[nH]c2ccccc12)n1nc(C)c(Cl)c1C

$$$$
P61070
     RDKit          3D

 29 31  0  0  0  0  0  0  0  0999 V2000
    1.1925   -0.0488   31.0551 C   0  0  0  0  0  0  0  0  0  0  0  0
    0.8377    0.5678   29.7073 C   0  0  0  0  0  0  0  0  0  0  0  0
   -0.6638    0.8700   29.5489 C   0  0  2  0  0  0  0  0  0  0  0  0
   -1.4950   -0.4298   29.5332 C   0  0  0  0  0  0  0  0  0  0  0  0
   -2.3973   -0.4877   30.6668 N   0  0  0  0  0  0  0  0  0  0  0  0
   -2.5060   -1.5254   31.8165 C   0  0  0  0  0  0  0  0  0  0  0  0
   -1.8369   -2.4476   32.0679 O   0  0  0  0  0  0  0  0  0  0  0  0
   -3.7393   -1.1561   32.6367 C   0  0  0  0  0  0  0  0  0  0  0  0
   -3.4232   -0.5639   34.0278 C   0  0  2  0  0  0  0  0  0  0  0  0
   -2.8178   -1.5934   34.8373 O   0  0  0  0  0  0  0  0  0  0  0  0
   -4.7215   -0.0910   34.7071 C   0  0  0  0  0  0  0  0  0  0  0  0
   -5.8448    0.4408   34.0914 C   0  0  0  0  0  0  0  0  0  0  0  0
   -6.7742    0.7498   35.0483 N   0  0  0  0  0  0  0  0  0  0  0  0
   -6.2968    0.4194   36.2922 C   0  0  0  0  0  0  0  0  0  0  0  0
   -6.9046    0.5394   37.5483 C   0  0  0  0  0  0  0  0  0  0  0  0
   -6.1735    0.1303   38.6669 C   0  0  0  0  0  0  0  0  0  0  0  0
   -4.8804   -0.3657   38.5342 C   0  0  0  0  0  0  0  0  0  0  0  0
   -4.2861   -0.4710   37.2719 C   0  0  0  0  0  0  0  0  0  0  0  0
   -5.0067   -0.0874   36.1193 C   0  0  0  0  0  0  0  0  0  0  0  0
   -2.4601    0.6509   33.8673 C   0  0  0  0  0  0  0  0  0  0  0  0
   -1.2463    0.2986   33.3836 F   0  0  0  0  0  0  0  0  0  0  0  0
   -2.9746    1.5477   32.9771 F   0  0  0  0  0  0  0  0  0  0  0  0
   -2.2442    1.3190   35.0227 F   0  0  0  0  0  0  0  0  0  0  0  0
   -0.9298    1.7816   28.4240 N   0  0  0  0  0  0  0  0  0  0  0  0
   -0.3789    3.0314   28.2727 C   0  0  0  0  0  0  0  0  0  0  0  0
   -1.0604    3.6378   27.2484 C   0  0  0  0  0  0  0  0  0  0  0  0
   -0.8435    5.1898   26.6184 Cl  0  0  0  0  0  0  0  0  0  0  0  0
   -2.0095    2.6921   26.8378 C   0  0  0  0  0  0  0  0  0  0  0  0
   -1.9207    1.5495   27.5290 N   0  0  0  0  0  0  0  0  0  0  0  0
  1  2  1  0
  3  2  1  6
  3  4  1  0
  4  5  1  0
  5  6  1  0
  6  7  2  0
  6  8  1  0
  8  9  1  0
  9 10  1  1
  9 11  1  0
 11 12  2  0
 12 13  1  0
 13 14  1  0
 14 15  2  0
 15 16  1  0
 16 17  2  0
 17 18  1  0
 18 19  2  0
  9 20  1  0
 20 21  1  0
 20 22  1  0
 20 23  1  0
  3 24  1  0
 24 25  1  0
 25 26  2  0
 26 27  1  0
 26 28  1  0
 28 29  2  0
 19 11  1  0
 29 24  1  0
 19 14  1  0
M  END
>  <name>  (59) 
P61070

>  <HIPPO Compound ID>  (59) 
98481

>  <energy_score>  (59) 
-15.104742

>  <HIPPO Pose ID>  (59) 
61070

>  <inspiration_score>  (59) 
None

>  <ref_pdb>  (59) 
7go7-a

>  <inchikey>  (59) 
YEEWGLNHJVBENZ-ACJLOTCBSA-N

>  <alias>  (59) 
None

>  <distance_score>  (59) 
1.351465

>  <ref_mols>  (59) 
7goy-a,7gp2-a

>  <smiles>  (59) 
CC[C@H](CNC(=O)C[C@](O)(c1c[nH]c2ccccc12)C(F)(F)F)n1cc(Cl)cn1

$$$$
P61073
     RDKit          3D

 29 31  0  0  0  0  0  0  0  0999 V2000
   -0.3011   -0.8655   28.0406 C   0  0  0  0  0  0  0  0  0  0  0  0
   -0.7189   -0.8861   29.4600 C   0  0  0  0  0  0  0  0  0  0  0  0
   -0.9561    0.2640   30.0979 N   0  0  0  0  0  0  0  0  0  0  0  0
   -1.0235   -0.0849   31.3839 N   0  0  0  0  0  0  0  0  0  0  0  0
   -0.7648    0.9314   32.3889 C   0  0  0  0  0  0  0  0  0  0  0  0
    0.6676    1.4949   32.3272 C   0  0  0  0  0  0  0  0  0  0  0  0
    0.8903    2.4447   31.2518 N   0  0  0  0  0  0  0  0  0  0  0  0
    1.7495    2.3233   29.9573 C   0  0  0  0  0  0  0  0  0  0  0  0
    2.3429    1.4151   29.5264 O   0  0  0  0  0  0  0  0  0  0  0  0
    1.7000    3.6769   29.2473 C   0  0  0  0  0  0  0  0  0  0  0  0
    1.4095    3.6606   27.7222 C   0  0  2  0  0  0  0  0  0  0  0  0
    1.6014    5.0690   27.3644 O   0  0  0  0  0  0  0  0  0  0  0  0
   -0.0392    3.2786   27.3893 C   0  0  0  0  0  0  0  0  0  0  0  0
   -0.9166    2.6604   28.2508 C   0  0  0  0  0  0  0  0  0  0  0  0
   -2.1117    2.4668   27.6442 N   0  0  0  0  0  0  0  0  0  0  0  0
   -2.0895    3.0626   26.4191 C   0  0  0  0  0  0  0  0  0  0  0  0
   -3.1323    3.2412   25.5142 C   0  0  0  0  0  0  0  0  0  0  0  0
   -2.8487    3.8620   24.2966 C   0  0  0  0  0  0  0  0  0  0  0  0
   -1.5607    4.2838   24.0022 C   0  0  0  0  0  0  0  0  0  0  0  0
   -0.5347    4.1274   24.9413 C   0  0  0  0  0  0  0  0  0  0  0  0
   -0.7948    3.5235   26.1895 C   0  0  0  0  0  0  0  0  0  0  0  0
    2.4220    2.7850   26.9286 C   0  0  0  0  0  0  0  0  0  0  0  0
    2.1517    1.4678   26.9462 F   0  0  0  0  0  0  0  0  0  0  0  0
    2.4131    3.1718   25.6204 F   0  0  0  0  0  0  0  0  0  0  0  0
    3.6932    2.9706   27.3607 F   0  0  0  0  0  0  0  0  0  0  0  0
   -1.2963   -1.4178   31.5383 C   0  0  0  0  0  0  0  0  0  0  0  0
   -1.7676   -2.0248   32.7986 C   0  0  0  0  0  0  0  0  0  0  0  0
   -0.9363   -1.9762   30.3261 C   0  0  0  0  0  0  0  0  0  0  0  0
   -0.7483   -3.6144   29.9500 Cl  0  0  0  0  0  0  0  0  0  0  0  0
  1  2  1  0
  2  3  2  0
  3  4  1  0
  4  5  1  0
  5  6  1  0
  6  7  1  0
  7  8  1  0
  8  9  2  0
  8 10  1  0
 10 11  1  0
 11 12  1  6
 11 13  1  0
 13 14  2  0
 14 15  1  0
 15 16  1  0
 16 17  2  0
 17 18  1  0
 18 19  2  0
 19 20  1  0
 20 21  2  0
 11 22  1  0
 22 23  1  0
 22 24  1  0
 22 25  1  0
  4 26  1  0
 26 27  1  0
 26 28  2  0
 28 29  1  0
 28  2  1  0
 21 13  1  0
 21 16  1  0
M  END
>  <name>  (60) 
P61073

>  <HIPPO Compound ID>  (60) 
98482

>  <energy_score>  (60) 
-13.677424

>  <HIPPO Pose ID>  (60) 
61073

>  <inspiration_score>  (60) 
None

>  <ref_pdb>  (60) 
7go7-a

>  <inchikey>  (60) 
KHMYFQONRRUTPN-SFHVURJKSA-N

>  <alias>  (60) 
None

>  <distance_score>  (60) 
1.908781

>  <ref_mols>  (60) 
7goy-a,7gp2-a

>  <smiles>  (60) 
Cc1nn(CCNC(=O)C[C@](O)(c2c[nH]c3ccccc23)C(F)(F)F)c(C)c1Cl

$$$$
P61076
     RDKit          3D

 29 31  0  0  0  0  0  0  0  0999 V2000
   -1.5574    4.5485   23.5612 C   0  0  0  0  0  0  0  0  0  0  0  0
   -2.6283    4.0029   24.4975 C   0  0  0  0  0  0  0  0  0  0  0  0
   -2.1107    2.9129   25.4438 C   0  0  2  0  0  0  0  0  0  0  0  0
   -3.2585    2.2849   26.2501 C   0  0  0  0  0  0  0  0  0  0  0  0
   -2.7218    1.1115   27.0832 C   0  0  0  0  0  0  0  0  0  0  0  0
   -2.4310    0.0823   26.6182 O   0  0  0  0  0  0  0  0  0  0  0  0
   -2.5762    1.6350   28.5362 N   0  0  0  0  0  0  0  0  0  0  0  0
   -1.9938    1.0690   29.6203 N   0  0  0  0  0  0  0  0  0  0  0  0
   -2.5935    0.7102   31.0313 C   0  0  0  0  0  0  0  0  0  0  0  0
   -3.6961    0.7824   31.4296 O   0  0  0  0  0  0  0  0  0  0  0  0
   -1.4274    0.3038   31.9470 C   0  0  1  0  0  0  0  0  0  0  0  0
   -1.9072   -0.0640   33.3606 C   0  0  0  0  0  0  0  0  0  0  0  0
   -0.6527   -0.7051   31.2433 N   0  0  0  0  0  0  0  0  0  0  0  0
    0.2403   -0.2308   30.3314 N   0  0  0  0  0  0  0  0  0  0  0  0
    0.3439   -1.2253   29.4373 C   0  0  0  0  0  0  0  0  0  0  0  0
    1.0630   -1.0164   28.1601 C   0  0  0  0  0  0  0  0  0  0  0  0
   -0.3455   -2.3771   29.8663 C   0  0  0  0  0  0  0  0  0  0  0  0
   -0.3830   -3.8664   29.0566 Cl  0  0  0  0  0  0  0  0  0  0  0  0
   -0.9828   -2.0198   31.0351 C   0  0  0  0  0  0  0  0  0  0  0  0
   -1.9056   -2.7845   31.8976 C   0  0  0  0  0  0  0  0  0  0  0  0
   -1.0067    3.2687   26.3907 C   0  0  0  0  0  0  0  0  0  0  0  0
   -0.0718    2.3519   26.8456 C   0  0  0  0  0  0  0  0  0  0  0  0
    0.6274    2.9096   27.8691 N   0  0  0  0  0  0  0  0  0  0  0  0
    0.2605    4.2220   28.0044 C   0  0  0  0  0  0  0  0  0  0  0  0
    0.7612    5.1936   28.8693 C   0  0  0  0  0  0  0  0  0  0  0  0
    0.2531    6.4887   28.7648 C   0  0  0  0  0  0  0  0  0  0  0  0
   -0.7513    6.7849   27.8508 C   0  0  0  0  0  0  0  0  0  0  0  0
   -1.2847    5.7880   27.0250 C   0  0  0  0  0  0  0  0  0  0  0  0
   -0.7516    4.4860   27.0772 C   0  0  0  0  0  0  0  0  0  0  0  0
  1  2  1  0
  3  2  1  1
  3  4  1  0
  4  5  1  0
  5  6  2  0
  5  7  1  0
  7  8  1  0
  8  9  1  0
  9 10  2  0
  9 11  1  0
 11 12  1  1
 11 13  1  0
 13 14  1  0
 14 15  2  0
 15 16  1  0
 15 17  1  0
 17 18  1  0
 17 19  2  0
 19 20  1  0
  3 21  1  0
 21 22  2  0
 22 23  1  0
 23 24  1  0
 24 25  2  0
 25 26  1  0
 26 27  2  0
 27 28  1  0
 28 29  2  0
 19 13  1  0
 29 21  1  0
 29 24  1  0
M  END
>  <name>  (61) 
P61076

>  <HIPPO Compound ID>  (61) 
98484

>  <energy_score>  (61) 
-5.351897

>  <HIPPO Pose ID>  (61) 
61076

>  <inspiration_score>  (61) 
None

>  <ref_pdb>  (61) 
7go7-a

>  <inchikey>  (61) 
WUIYFGKBFYCTLA-HUUCEWRRSA-N

>  <alias>  (61) 
None

>  <distance_score>  (61) 
1.870331

>  <ref_mols>  (61) 
7goy-a,7gp2-a

>  <smiles>  (61) 
CC[C@H](CC(=O)NNC(=O)[C@@H](C)n1nc(C)c(Cl)c1C)c1c[nH]c2ccccc12

$$$$
P61077
     RDKit          3D

 29 31  0  0  0  0  0  0  0  0999 V2000
   -2.5813    0.1310   26.6945 C   0  0  0  0  0  0  0  0  0  0  0  0
   -2.8236    1.6162   26.6824 C   0  0  0  0  0  0  0  0  0  0  0  0
   -2.1048    2.3030   27.8464 C   0  0  1  0  0  0  0  0  0  0  0  0
   -1.9416    1.4188   29.0986 C   0  0  0  0  0  0  0  0  0  0  0  0
   -1.1469    1.9583   30.3018 C   0  0  0  0  0  0  0  0  0  0  0  0
   -0.2995    2.7547   30.2483 O   0  0  0  0  0  0  0  0  0  0  0  0
   -1.6721    1.1294   31.5036 N   0  0  0  0  0  0  0  0  0  0  0  0
   -1.1967    1.0454   32.8582 C   0  0  0  0  0  0  0  0  0  0  0  0
   -0.0478    0.0053   32.9605 C   0  0  2  0  0  0  0  0  0  0  0  0
    1.3262    0.5756   33.4285 C   0  0  0  0  0  0  0  0  0  0  0  0
    1.8192    1.8150   32.6727 C   0  0  0  0  0  0  0  0  0  0  0  0
    1.2822    0.8987   34.9290 C   0  0  0  0  0  0  0  0  0  0  0  0
    0.0154   -0.8222   31.7396 N   0  0  0  0  0  0  0  0  0  0  0  0
    0.8804   -0.4968   30.7538 N   0  0  0  0  0  0  0  0  0  0  0  0
    0.5632   -1.3006   29.7369 C   0  0  0  0  0  0  0  0  0  0  0  0
    1.2631   -1.2152   28.4324 C   0  0  0  0  0  0  0  0  0  0  0  0
   -0.4707   -2.1787   30.0925 C   0  0  0  0  0  0  0  0  0  0  0  0
   -1.0504   -3.4073   29.1021 Cl  0  0  0  0  0  0  0  0  0  0  0  0
   -0.8728   -1.8131   31.3587 C   0  0  0  0  0  0  0  0  0  0  0  0
   -2.0006   -2.3111   32.1832 C   0  0  0  0  0  0  0  0  0  0  0  0
   -0.8391    2.8294   27.3089 C   0  0  0  0  0  0  0  0  0  0  0  0
    0.3976    2.2338   27.3489 C   0  0  0  0  0  0  0  0  0  0  0  0
    1.2951    3.1265   26.8560 N   0  0  0  0  0  0  0  0  0  0  0  0
    0.6439    4.2442   26.3974 C   0  0  0  0  0  0  0  0  0  0  0  0
    1.1441    5.3980   25.7982 C   0  0  0  0  0  0  0  0  0  0  0  0
    0.2347    6.3833   25.3967 C   0  0  0  0  0  0  0  0  0  0  0  0
   -1.1317    6.2209   25.6003 C   0  0  0  0  0  0  0  0  0  0  0  0
   -1.6202    5.0689   26.2217 C   0  0  0  0  0  0  0  0  0  0  0  0
   -0.7120    4.0695   26.6290 C   0  0  0  0  0  0  0  0  0  0  0  0
  1  2  1  0
  3  2  1  6
  3  4  1  0
  4  5  1  0
  5  6  2  0
  5  7  1  0
  7  8  1  0
  9  8  1  6
  9 10  1  0
 10 11  1  0
 10 12  1  0
  9 13  1  0
 13 14  1  0
 14 15  2  0
 15 16  1  0
 15 17  1  0
 17 18  1  0
 17 19  2  0
 19 20  1  0
  3 21  1  0
 21 22  2  0
 22 23  1  0
 23 24  1  0
 24 25  2  0
 25 26  1  0
 26 27  2  0
 27 28  1  0
 28 29  2  0
 19 13  1  0
 29 21  1  0
 29 24  1  0
M  END
>  <name>  (62) 
P61077

>  <HIPPO Compound ID>  (62) 
98485

>  <energy_score>  (62) 
-23.959777

>  <HIPPO Pose ID>  (62) 
61077

>  <inspiration_score>  (62) 
None

>  <ref_pdb>  (62) 
7go7-a

>  <inchikey>  (62) 
OZPYDGQIDHRPFK-LAUBAEHRSA-N

>  <alias>  (62) 
None

>  <distance_score>  (62) 
1.983318

>  <ref_mols>  (62) 
7goy-a,7gp2-a

>  <smiles>  (62) 
CC[C@@H](CC(=O)NC[C@H](C(C)C)n1nc(C)c(Cl)c1C)c1c[nH]c2ccccc12

$$$$
P61079
     RDKit          3D

 29 31  0  0  0  0  0  0  0  0999 V2000
   -8.1073   -0.7212   35.5186 C   0  0  0  0  0  0  0  0  0  0  0  0
   -7.2145    0.1750   34.6811 C   0  0  0  0  0  0  0  0  0  0  0  0
   -5.7202   -0.2049   34.6836 C   0  0  1  0  0  0  0  0  0  0  0  0
   -4.9703    0.6196   33.6146 C   0  0  0  0  0  0  0  0  0  0  0  0
   -5.3084    1.7048   33.3353 O   0  0  0  0  0  0  0  0  0  0  0  0
   -3.7859   -0.2381   33.0765 N   0  0  0  0  0  0  0  0  0  0  0  0
   -2.9024    0.0126   32.0913 N   0  0  0  0  0  0  0  0  0  0  0  0
   -2.4203   -0.8899   30.9033 C   0  0  0  0  0  0  0  0  0  0  0  0
   -2.6629   -2.0090   30.6536 O   0  0  0  0  0  0  0  0  0  0  0  0
   -1.5527    0.0816   30.0483 C   0  0  0  0  0  0  0  0  0  0  0  0
   -1.8681    1.3770   30.3851 F   0  0  0  0  0  0  0  0  0  0  0  0
   -0.2518   -0.0557   30.4248 F   0  0  0  0  0  0  0  0  0  0  0  0
   -1.7081   -0.0852   28.5256 C   0  0  0  0  0  0  0  0  0  0  0  0
   -0.9792    1.0058   27.7799 C   0  0  0  0  0  0  0  0  0  0  0  0
    0.4017    1.0992   27.7228 C   0  0  0  0  0  0  0  0  0  0  0  0
    1.4847    0.1741   28.1566 C   0  0  0  0  0  0  0  0  0  0  0  0
    0.7131    2.3327   27.2286 N   0  0  0  0  0  0  0  0  0  0  0  0
   -0.4143    2.9823   26.8085 C   0  0  0  0  0  0  0  0  0  0  0  0
   -0.5422    4.2391   26.2086 C   0  0  0  0  0  0  0  0  0  0  0  0
   -1.8095    4.6349   25.7841 C   0  0  0  0  0  0  0  0  0  0  0  0
   -2.9039    3.8024   25.9665 C   0  0  0  0  0  0  0  0  0  0  0  0
   -2.7624    2.5726   26.6169 C   0  0  0  0  0  0  0  0  0  0  0  0
   -1.4961    2.1422   27.0611 C   0  0  0  0  0  0  0  0  0  0  0  0
   -5.1050    0.0345   35.9851 N   0  0  0  0  0  0  0  0  0  0  0  0
   -4.9482    1.2348   36.6227 C   0  0  0  0  0  0  0  0  0  0  0  0
   -4.3757    0.9496   37.8359 C   0  0  0  0  0  0  0  0  0  0  0  0
   -3.9503    2.0221   39.0697 Cl  0  0  0  0  0  0  0  0  0  0  0  0
   -4.2209   -0.4462   37.8440 C   0  0  0  0  0  0  0  0  0  0  0  0
   -4.6532   -1.0129   36.7096 N   0  0  0  0  0  0  0  0  0  0  0  0
  1  2  1  0
  3  2  1  1
  3  4  1  0
  4  5  2  0
  4  6  1  0
  6  7  1  0
  7  8  1  0
  8  9  2  0
  8 10  1  0
 10 11  1  0
 10 12  1  0
 10 13  1  0
 13 14  1  0
 14 15  2  0
 15 16  1  0
 15 17  1  0
 17 18  1  0
 18 19  2  0
 19 20  1  0
 20 21  2  0
 21 22  1  0
 22 23  2  0
  3 24  1  0
 24 25  1  0
 25 26  2  0
 26 27  1  0
 26 28  1  0
 28 29  2  0
 23 14  1  0
 29 24  1  0
 23 18  1  0
M  END
>  <name>  (63) 
P61079

>  <HIPPO Compound ID>  (63) 
98494

>  <energy_score>  (63) 
-4.73064

>  <HIPPO Pose ID>  (63) 
61079

>  <inspiration_score>  (63) 
None

>  <ref_pdb>  (63) 
7go7-a

>  <inchikey>  (63) 
DDVXVTKVSRMQHZ-INIZCTEOSA-N

>  <alias>  (63) 
None

>  <distance_score>  (63) 
1.91365

>  <ref_mols>  (63) 
7goy-a,7gp2-a

>  <smiles>  (63) 
CC[C@@H](C(=O)NNC(=O)C(F)(F)Cc1c(C)[nH]c2ccccc12)n1cc(Cl)cn1

$$$$
P61080
     RDKit          3D

 29 32  0  0  0  0  0  0  0  0999 V2000
   -3.0460   -1.0801   32.0707 C   0  0  0  0  0  0  0  0  0  0  0  0
   -1.6233   -1.1924   31.6840 C   0  0  0  0  0  0  0  0  0  0  0  0
   -0.8155   -2.3034   31.5949 C   0  0  0  0  0  0  0  0  0  0  0  0
   -1.2066   -3.9267   31.8699 Cl  0  0  0  0  0  0  0  0  0  0  0  0
    0.4543   -1.8153   31.2609 C   0  0  0  0  0  0  0  0  0  0  0  0
    0.4566   -0.4977   31.0808 N   0  0  0  0  0  0  0  0  0  0  0  0
   -0.8040   -0.1312   31.3721 N   0  0  0  0  0  0  0  0  0  0  0  0
   -1.1589    1.2713   31.2944 C   0  0  0  0  0  0  0  0  0  0  0  0
    0.0038    2.2449   31.4995 C   0  0  0  0  0  0  0  0  0  0  0  0
    0.8868    2.2379   30.3709 N   0  0  0  0  0  0  0  0  0  0  0  0
    1.5584    3.4077   29.6136 C   0  0  0  0  0  0  0  0  0  0  0  0
    1.4366    4.5601   29.7425 O   0  0  0  0  0  0  0  0  0  0  0  0
    2.4045    2.7767   28.5189 C   0  0  0  0  0  0  0  0  0  0  0  0
    1.6999    2.7862   27.1664 C   0  0  0  0  0  0  0  0  0  0  0  0
    0.2635    2.3125   27.1316 C   0  0  0  0  0  0  0  0  0  0  0  0
   -0.2819    1.0520   27.4163 C   0  0  0  0  0  0  0  0  0  0  0  0
    0.3000   -0.2744   27.7329 C   0  0  0  0  0  0  0  0  0  0  0  0
   -0.5210   -1.3580   28.0996 C   0  0  0  0  0  0  0  0  0  0  0  0
    0.0031   -2.6393   28.3019 C   0  0  0  0  0  0  0  0  0  0  0  0
    1.3684   -2.8555   28.1839 C   0  0  0  0  0  0  0  0  0  0  0  0
    2.2018   -1.8105   27.8128 C   0  0  0  0  0  0  0  0  0  0  0  0
    1.6673   -0.5403   27.5785 C   0  0  0  0  0  0  0  0  0  0  0  0
   -1.6456    1.2022   27.2691 N   0  0  0  0  0  0  0  0  0  0  0  0
   -1.9612    2.4028   26.7008 C   0  0  0  0  0  0  0  0  0  0  0  0
   -3.1756    2.8658   26.2001 C   0  0  0  0  0  0  0  0  0  0  0  0
   -3.1933    4.1158   25.5825 C   0  0  0  0  0  0  0  0  0  0  0  0
   -2.0631    4.9173   25.5562 C   0  0  0  0  0  0  0  0  0  0  0  0
   -0.8662    4.4494   26.0961 C   0  0  0  0  0  0  0  0  0  0  0  0
   -0.7995    3.1474   26.6396 C   0  0  0  0  0  0  0  0  0  0  0  0
  1  2  1  0
  2  3  2  0
  3  4  1  0
  3  5  1  0
  5  6  2  0
  6  7  1  0
  7  8  1  0
  8  9  1  0
  9 10  1  0
 10 11  1  0
 11 12  2  0
 11 13  1  0
 13 14  1  0
 14 15  1  0
 15 16  2  0
 16 17  1  0
 17 18  2  0
 18 19  1  0
 19 20  2  0
 20 21  1  0
 21 22  2  0
 16 23  1  0
 23 24  1  0
 24 25  2  0
 25 26  1  0
 26 27  2  0
 27 28  1  0
 28 29  2  0
  7  2  1  0
 29 15  1  0
 22 17  1  0
 29 24  1  0
M  END
>  <name>  (64) 
P61080

>  <HIPPO Compound ID>  (64) 
98495

>  <energy_score>  (64) 
-21.615813

>  <HIPPO Pose ID>  (64) 
61080

>  <inspiration_score>  (64) 
None

>  <ref_pdb>  (64) 
7go7-a

>  <inchikey>  (64) 
QAFCWPOEWUBJPA-UHFFFAOYSA-N

>  <alias>  (64) 
None

>  <distance_score>  (64) 
1.960489

>  <ref_mols>  (64) 
7goy-a,7gp2-a

>  <smiles>  (64) 
Cc1c(Cl)cnn1CCNC(=O)CCc1c(-c2ccccc2)[nH]c2ccccc12

$$$$
P61081
     RDKit          3D

 29 32  0  0  0  0  0  0  0  0999 V2000
   -2.9557   -1.6153   32.6719 C   0  0  0  0  0  0  0  0  0  0  0  0
   -1.5507   -1.3016   32.3494 C   0  0  0  0  0  0  0  0  0  0  0  0
   -0.9937   -0.2202   32.9113 N   0  0  0  0  0  0  0  0  0  0  0  0
    0.1670   -0.0808   32.2515 N   0  0  0  0  0  0  0  0  0  0  0  0
    0.7494    1.2535   32.1658 C   0  0  0  0  0  0  0  0  0  0  0  0
   -0.1672    2.1507   31.3208 C   0  0  0  0  0  0  0  0  0  0  0  0
   -0.5966    1.3971   30.1708 N   0  0  0  0  0  0  0  0  0  0  0  0
   -1.9666    0.7574   29.8431 C   0  0  0  0  0  0  0  0  0  0  0  0
   -2.9804    0.8075   30.4170 O   0  0  0  0  0  0  0  0  0  0  0  0
   -1.7543   -0.1046   28.6085 C   0  0  0  0  0  0  0  0  0  0  0  0
   -1.8631    0.6047   27.2882 C   0  0  0  0  0  0  0  0  0  0  0  0
   -0.9455    1.7518   27.0559 C   0  0  0  0  0  0  0  0  0  0  0  0
    0.4336    1.8675   27.2740 C   0  0  0  0  0  0  0  0  0  0  0  0
    1.5206    0.9746   27.7474 C   0  0  0  0  0  0  0  0  0  0  0  0
    1.5045   -0.4044   27.5309 C   0  0  0  0  0  0  0  0  0  0  0  0
    2.5450   -1.2300   27.9695 C   0  0  0  0  0  0  0  0  0  0  0  0
    3.6205   -0.6895   28.6637 C   0  0  0  0  0  0  0  0  0  0  0  0
    3.6513    0.6759   28.9209 C   0  0  0  0  0  0  0  0  0  0  0  0
    2.6126    1.4973   28.4680 C   0  0  0  0  0  0  0  0  0  0  0  0
    0.7342    3.1797   26.9913 N   0  0  0  0  0  0  0  0  0  0  0  0
   -0.3432    3.8707   26.5256 C   0  0  0  0  0  0  0  0  0  0  0  0
   -0.4348    5.1946   26.0966 C   0  0  0  0  0  0  0  0  0  0  0  0
   -1.6445    5.6124   25.5430 C   0  0  0  0  0  0  0  0  0  0  0  0
   -2.7228    4.7406   25.4573 C   0  0  0  0  0  0  0  0  0  0  0  0
   -2.6340    3.4425   25.9627 C   0  0  0  0  0  0  0  0  0  0  0  0
   -1.4080    2.9901   26.4924 C   0  0  0  0  0  0  0  0  0  0  0  0
    0.4662   -1.1524   31.4530 C   0  0  0  0  0  0  0  0  0  0  0  0
   -0.6499   -1.9532   31.4756 C   0  0  0  0  0  0  0  0  0  0  0  0
   -0.9002   -3.3767   30.5994 Cl  0  0  0  0  0  0  0  0  0  0  0  0
  1  2  1  0
  2  3  2  0
  3  4  1  0
  4  5  1  0
  5  6  1  0
  6  7  1  0
  7  8  1  0
  8  9  2  0
  8 10  1  0
 10 11  1  0
 11 12  1  0
 12 13  2  0
 13 14  1  0
 14 15  2  0
 15 16  1  0
 16 17  2  0
 17 18  1  0
 18 19  2  0
 13 20  1  0
 20 21  1  0
 21 22  2  0
 22 23  1  0
 23 24  2  0
 24 25  1  0
 25 26  2  0
  4 27  1  0
 27 28  2  0
 28 29  1  0
 28  2  1  0
 26 12  1  0
 19 14  1  0
 26 21  1  0
M  END
>  <name>  (65) 
P61081

>  <HIPPO Compound ID>  (65) 
98496

>  <energy_score>  (65) 
-6.089047

>  <HIPPO Pose ID>  (65) 
61081

>  <inspiration_score>  (65) 
None

>  <ref_pdb>  (65) 
7go7-a

>  <inchikey>  (65) 
JLUJZPRTFLCCKZ-UHFFFAOYSA-N

>  <alias>  (65) 
None

>  <distance_score>  (65) 
1.947515

>  <ref_mols>  (65) 
7goy-a,7gp2-a

>  <smiles>  (65) 
Cc1nn(CCNC(=O)CCc2c(-c3ccccc3)[nH]c3ccccc23)cc1Cl

$$$$
P61082
     RDKit          3D

 29 32  0  0  0  0  0  0  0  0999 V2000
   -5.3659   -2.0561   32.0681 O   0  0  0  0  0  0  0  0  0  0  0  0
   -4.7694   -1.5652   32.9481 C   0  0  0  0  0  0  0  0  0  0  0  0
   -5.3612   -1.4246   34.3306 C   0  0  0  0  0  0  0  0  0  0  0  0
   -6.1383   -0.2109   34.4813 N   0  0  0  0  0  0  0  0  0  0  0  0
   -7.4480   -0.1205   34.8578 C   0  0  0  0  0  0  0  0  0  0  0  0
   -7.7325    1.2235   34.9533 C   0  0  0  0  0  0  0  0  0  0  0  0
   -9.2282    1.9057   35.3634 Cl  0  0  0  0  0  0  0  0  0  0  0  0
   -6.5265    1.8665   34.6094 C   0  0  0  0  0  0  0  0  0  0  0  0
   -6.2267    3.2776   34.5051 N   0  0  0  0  0  0  0  0  0  0  0  0
   -5.3230    3.6183   33.7209 O   0  0  0  0  0  0  0  0  0  0  0  0
   -6.8782    4.0509   35.2210 O   0  0  0  0  0  0  0  0  0  0  0  0
   -5.5276    0.9879   34.3670 N   0  0  0  0  0  0  0  0  0  0  0  0
   -3.3193   -0.9918   32.9899 N   0  0  0  0  0  0  0  0  0  0  0  0
   -2.3526   -0.9938   32.0545 N   0  0  0  0  0  0  0  0  0  0  0  0
   -1.8886   -2.1206   31.0815 C   0  0  0  0  0  0  0  0  0  0  0  0
   -2.2250   -3.2381   31.0009 O   0  0  0  0  0  0  0  0  0  0  0  0
   -0.9070   -1.4353   30.1007 C   0  0  1  0  0  0  0  0  0  0  0  0
   -1.7366   -0.6492   29.0608 C   0  0  0  0  0  0  0  0  0  0  0  0
   -1.0434    0.5662   28.5789 C   0  0  0  0  0  0  0  0  0  0  0  0
    0.0447    1.0450   29.2617 C   0  0  0  0  0  0  0  0  0  0  0  0
    0.4197    2.2257   28.6915 N   0  0  0  0  0  0  0  0  0  0  0  0
   -0.4990    2.5954   27.7380 C   0  0  0  0  0  0  0  0  0  0  0  0
   -0.6104    3.7889   27.0156 C   0  0  0  0  0  0  0  0  0  0  0  0
   -1.6840    3.9166   26.1313 C   0  0  0  0  0  0  0  0  0  0  0  0
   -2.5952    2.8826   25.9602 C   0  0  0  0  0  0  0  0  0  0  0  0
   -2.4543    1.6859   26.6777 C   0  0  0  0  0  0  0  0  0  0  0  0
   -1.4050    1.5409   27.6049 C   0  0  0  0  0  0  0  0  0  0  0  0
    0.5470    0.4506   30.4547 C   0  0  0  0  0  0  0  0  0  0  0  0
    0.0514   -0.6357   30.9377 N   0  0  0  0  0  0  0  0  0  0  0  0
  1  2  2  0
  2  3  1  0
  3  4  1  0
  4  5  1  0
  5  6  2  0
  6  7  1  0
  6  8  1  0
  8  9  1  0
  9 10  2  0
  9 11  1  0
  8 12  2  0
  2 13  1  0
 13 14  1  0
 14 15  1  0
 15 16  2  0
 17 15  1  1
 17 18  1  0
 18 19  1  0
 19 20  2  0
 20 21  1  0
 21 22  1  0
 22 23  2  0
 23 24  1  0
 24 25  2  0
 25 26  1  0
 26 27  2  0
 20 28  1  0
 28 29  2  0
 12  4  1  0
 29 17  1  0
 27 19  1  0
 27 22  1  0
M  CHG  2   9   1  11  -1
M  END
>  <name>  (66) 
P61082

>  <HIPPO Compound ID>  (66) 
98508

>  <energy_score>  (66) 
-9.73185

>  <HIPPO Pose ID>  (66) 
61082

>  <inspiration_score>  (66) 
None

>  <ref_pdb>  (66) 
7go7-a

>  <inchikey>  (66) 
RSLFHZPFDKABMN-CYBMUJFWSA-N

>  <alias>  (66) 
None

>  <distance_score>  (66) 
1.367798

>  <ref_mols>  (66) 
7goy-a,7gp2-a

>  <smiles>  (66) 
O=C(Cn1cc(Cl)c([N+](=O)[O-])n1)NNC(=O)[C@H]1Cc2c([nH]c3ccccc23)C=N1

$$$$
P61084
     RDKit          3D

 29 32  0  0  0  0  0  0  0  0999 V2000
  -10.0293   -0.6943   35.8474 C   0  0  0  0  0  0  0  0  0  0  0  0
   -8.6943   -0.1055   35.5783 C   0  0  0  0  0  0  0  0  0  0  0  0
   -7.6733   -0.8885   35.2115 N   0  0  0  0  0  0  0  0  0  0  0  0
   -6.6291   -0.0339   35.0376 N   0  0  0  0  0  0  0  0  0  0  0  0
   -5.3231   -0.6414   34.7252 C   0  0  2  0  0  0  0  0  0  0  0  0
   -4.4378   -0.6930   35.9731 C   0  0  0  0  0  0  0  0  0  0  0  0
   -4.5876   -0.0097   33.5217 C   0  0  0  0  0  0  0  0  0  0  0  0
   -4.8113    1.0677   33.1180 O   0  0  0  0  0  0  0  0  0  0  0  0
   -3.4909   -1.0459   33.0949 N   0  0  0  0  0  0  0  0  0  0  0  0
   -2.5862   -0.9992   32.0999 N   0  0  0  0  0  0  0  0  0  0  0  0
   -2.0501   -2.1251   31.1684 C   0  0  0  0  0  0  0  0  0  0  0  0
   -2.3696   -3.2458   31.0736 O   0  0  0  0  0  0  0  0  0  0  0  0
   -1.0092   -1.4489   30.2347 C   0  0  1  0  0  0  0  0  0  0  0  0
   -1.7778   -0.6735   29.1403 C   0  0  0  0  0  0  0  0  0  0  0  0
   -1.0538    0.5252   28.6658 C   0  0  0  0  0  0  0  0  0  0  0  0
    0.0057    1.0068   29.3896 C   0  0  0  0  0  0  0  0  0  0  0  0
    0.4157    2.1747   28.8154 N   0  0  0  0  0  0  0  0  0  0  0  0
   -0.4670    2.5427   27.8263 C   0  0  0  0  0  0  0  0  0  0  0  0
   -0.5470    3.7318   27.0924 C   0  0  0  0  0  0  0  0  0  0  0  0
   -1.5957    3.8643   26.1790 C   0  0  0  0  0  0  0  0  0  0  0  0
   -2.5129    2.8384   25.9908 C   0  0  0  0  0  0  0  0  0  0  0  0
   -2.4010    1.6434   26.7170 C   0  0  0  0  0  0  0  0  0  0  0  0
   -1.3770    1.4947   27.6725 C   0  0  0  0  0  0  0  0  0  0  0  0
    0.4407    0.4309   30.6198 C   0  0  0  0  0  0  0  0  0  0  0  0
   -0.0883   -0.6422   31.0992 N   0  0  0  0  0  0  0  0  0  0  0  0
   -6.9547    1.2654   35.3687 C   0  0  0  0  0  0  0  0  0  0  0  0
   -6.0292    2.4273   35.3537 C   0  0  0  0  0  0  0  0  0  0  0  0
   -8.3009    1.2438   35.6694 C   0  0  0  0  0  0  0  0  0  0  0  0
   -9.2961    2.5524   36.0942 Cl  0  0  0  0  0  0  0  0  0  0  0  0
  1  2  1  0
  2  3  2  0
  3  4  1  0
  4  5  1  0
  5  6  1  1
  5  7  1  0
  7  8  2  0
  7  9  1  0
  9 10  1  0
 10 11  1  0
 11 12  2  0
 13 11  1  1
 13 14  1  0
 14 15  1  0
 15 16  2  0
 16 17  1  0
 17 18  1  0
 18 19  2  0
 19 20  1  0
 20 21  2  0
 21 22  1  0
 22 23  2  0
 16 24  1  0
 24 25  2  0
  4 26  1  0
 26 27  1  0
 26 28  2  0
 28 29  1  0
 28  2  1  0
 25 13  1  0
 23 15  1  0
 23 18  1  0
M  END
>  <name>  (67) 
P61084

>  <HIPPO Compound ID>  (67) 
98509

>  <energy_score>  (67) 
-4.833438

>  <HIPPO Pose ID>  (67) 
61084

>  <inspiration_score>  (67) 
None

>  <ref_pdb>  (67) 
7go7-a

>  <inchikey>  (67) 
GSDITFWOZBITBF-MLGOLLRUSA-N

>  <alias>  (67) 
None

>  <distance_score>  (67) 
1.174173

>  <ref_mols>  (67) 
7goy-a,7gp2-a

>  <smiles>  (67) 
Cc1nn([C@H](C)C(=O)NNC(=O)[C@H]2Cc3c([nH]c4ccccc34)C=N2)c(C)c1Cl

$$$$
P61085
     RDKit          3D

 29 31  0  0  0  0  0  0  0  0999 V2000
   -2.2997    4.1406   23.6320 C   0  0  0  0  0  0  0  0  0  0  0  0
   -2.7801    4.4479   25.0573 C   0  0  0  0  0  0  0  0  0  0  0  0
   -3.9524    3.5427   25.4048 C   0  0  0  0  0  0  0  0  0  0  0  0
   -1.6120    4.3972   26.0662 C   0  0  1  0  0  0  0  0  0  0  0  0
   -1.8802    5.0386   27.4309 C   0  0  0  0  0  0  0  0  0  0  0  0
   -0.6341    5.1355   28.3764 C   0  0  0  0  0  0  0  0  0  0  0  0
    0.0259    6.1028   28.4239 O   0  0  0  0  0  0  0  0  0  0  0  0
   -0.5673    3.8198   29.2235 N   0  0  0  0  0  0  0  0  0  0  0  0
    0.2623    3.4746   30.3585 C   0  0  0  0  0  0  0  0  0  0  0  0
    0.8071    2.0442   30.4652 C   0  0  0  0  0  0  0  0  0  0  0  0
   -0.1077    0.9083   30.5008 N   0  0  0  0  0  0  0  0  0  0  0  0
    0.1125   -0.2800   29.8549 C   0  0  0  0  0  0  0  0  0  0  0  0
   -0.8411   -1.1604   30.2806 C   0  0  0  0  0  0  0  0  0  0  0  0
   -1.0299   -2.7660   29.7825 Cl  0  0  0  0  0  0  0  0  0  0  0  0
   -1.5425   -0.4793   31.2985 C   0  0  0  0  0  0  0  0  0  0  0  0
   -2.5597   -1.1368   32.1923 C   0  0  0  0  0  0  0  0  0  0  0  0
   -2.0587   -2.2643   32.7669 F   0  0  0  0  0  0  0  0  0  0  0  0
   -3.6637   -1.5323   31.5018 F   0  0  0  0  0  0  0  0  0  0  0  0
   -2.9997   -0.3406   33.1993 F   0  0  0  0  0  0  0  0  0  0  0  0
   -1.1194    0.8108   31.4026 N   0  0  0  0  0  0  0  0  0  0  0  0
   -1.0361    3.0367   26.3062 C   0  0  0  0  0  0  0  0  0  0  0  0
   -1.6177    1.8692   26.7659 C   0  0  0  0  0  0  0  0  0  0  0  0
   -0.6109    1.0007   27.0832 N   0  0  0  0  0  0  0  0  0  0  0  0
    0.6086    1.6069   26.8870 C   0  0  0  0  0  0  0  0  0  0  0  0
    1.9079    1.1431   27.0957 C   0  0  0  0  0  0  0  0  0  0  0  0
    2.9799    1.9698   26.7475 C   0  0  0  0  0  0  0  0  0  0  0  0
    2.7563    3.2265   26.2036 C   0  0  0  0  0  0  0  0  0  0  0  0
    1.4521    3.6784   25.9855 C   0  0  0  0  0  0  0  0  0  0  0  0
    0.3675    2.8472   26.3187 C   0  0  0  0  0  0  0  0  0  0  0  0
  1  2  1  0
  2  3  1  0
  2  4  1  0
  4  5  1  1
  5  6  1  0
  6  7  2  0
  6  8  1  0
  8  9  1  0
  9 10  1  0
 10 11  1  0
 11 12  1  0
 12 13  2  0
 13 14  1  0
 13 15  1  0
 15 16  1  0
 16 17  1  0
 16 18  1  0
 16 19  1  0
 15 20  2  0
  4 21  1  0
 21 22  2  0
 22 23  1  0
 23 24  1  0
 24 25  2  0
 25 26  1  0
 26 27  2  0
 27 28  1  0
 28 29  2  0
 20 11  1  0
 29 21  1  0
 29 24  1  0
M  END
>  <name>  (68) 
P61085

>  <HIPPO Compound ID>  (68) 
98512

>  <energy_score>  (68) 
-3.805588

>  <HIPPO Pose ID>  (68) 
61085

>  <inspiration_score>  (68) 
None

>  <ref_pdb>  (68) 
7go7-a

>  <inchikey>  (68) 
BDFRIIOQYDOAJT-CQSZACIVSA-N

>  <alias>  (68) 
None

>  <distance_score>  (68) 
1.879059

>  <ref_mols>  (68) 
7goy-a,7gp2-a

>  <smiles>  (68) 
CC(C)[C@@H](CC(=O)NCCn1cc(Cl)c(C(F)(F)F)n1)c1c[nH]c2ccccc12

$$$$
P61086
     RDKit          3D

 29 31  0  0  0  0  0  0  0  0999 V2000
   -3.0034   -1.3282   31.9709 C   0  0  0  0  0  0  0  0  0  0  0  0
   -1.7330   -0.8001   31.4212 C   0  0  0  0  0  0  0  0  0  0  0  0
   -1.0762    0.1589   32.0931 N   0  0  0  0  0  0  0  0  0  0  0  0
    0.0989    0.2628   31.4385 N   0  0  0  0  0  0  0  0  0  0  0  0
    1.1612    1.0849   32.0166 C   0  0  1  0  0  0  0  0  0  0  0  0
    2.3044    0.2146   32.5326 C   0  0  0  0  0  0  0  0  0  0  0  0
    1.6267    2.0871   30.9670 C   0  0  0  0  0  0  0  0  0  0  0  0
    2.6375    1.9763   30.3873 O   0  0  0  0  0  0  0  0  0  0  0  0
    0.4738    3.1294   30.8013 N   0  0  0  0  0  0  0  0  0  0  0  0
    0.3070    4.1071   29.8959 N   0  0  0  0  0  0  0  0  0  0  0  0
    1.2197    5.3112   29.5320 C   0  0  0  0  0  0  0  0  0  0  0  0
    2.2168    5.6788   30.0169 O   0  0  0  0  0  0  0  0  0  0  0  0
    0.6173    5.9355   28.2728 C   0  0  0  0  0  0  0  0  0  0  0  0
    0.9529    5.1513   26.9714 C   0  0  2  0  0  0  0  0  0  0  0  0
    0.2181    3.8112   26.9368 C   0  0  0  0  0  0  0  0  0  0  0  0
    0.6758    2.5766   27.3706 C   0  0  0  0  0  0  0  0  0  0  0  0
   -0.3503    1.6827   27.3248 N   0  0  0  0  0  0  0  0  0  0  0  0
   -1.4541    2.2971   26.7995 C   0  0  0  0  0  0  0  0  0  0  0  0
   -2.7182    1.7823   26.5552 C   0  0  0  0  0  0  0  0  0  0  0  0
   -3.6573    2.6201   25.9513 C   0  0  0  0  0  0  0  0  0  0  0  0
   -3.3285    3.9153   25.5769 C   0  0  0  0  0  0  0  0  0  0  0  0
   -2.0721    4.4372   25.8696 C   0  0  0  0  0  0  0  0  0  0  0  0
   -1.1167    3.6108   26.4880 C   0  0  0  0  0  0  0  0  0  0  0  0
    2.4766    5.0403   26.6663 C   0  0  0  0  0  0  0  0  0  0  0  0
    2.7197    4.4559   25.2667 C   0  0  0  0  0  0  0  0  0  0  0  0
    3.1915    6.3968   26.7399 C   0  0  0  0  0  0  0  0  0  0  0  0
    0.1305   -0.4569   30.2780 C   0  0  0  0  0  0  0  0  0  0  0  0
   -1.0373   -1.1745   30.2489 C   0  0  0  0  0  0  0  0  0  0  0  0
   -1.4937   -2.3051   29.0857 Cl  0  0  0  0  0  0  0  0  0  0  0  0
  1  2  1  0
  2  3  2  0
  3  4  1  0
  4  5  1  0
  5  6  1  6
  5  7  1  0
  7  8  2  0
  7  9  1  0
  9 10  1  0
 10 11  1  0
 11 12  2  0
 11 13  1  0
 14 13  1  1
 14 15  1  0
 15 16  2  0
 16 17  1  0
 17 18  1  0
 18 19  2  0
 19 20  1  0
 20 21  2  0
 21 22  1  0
 22 23  2  0
 14 24  1  0
 24 25  1  0
 24 26  1  0
  4 27  1  0
 27 28  2  0
 28 29  1  0
 28  2  1  0
 23 15  1  0
 23 18  1  0
M  END
>  <name>  (69) 
P61086

>  <HIPPO Compound ID>  (69) 
98513

>  <energy_score>  (69) 
-24.147845

>  <HIPPO Pose ID>  (69) 
61086

>  <inspiration_score>  (69) 
None

>  <ref_pdb>  (69) 
7go7-a

>  <inchikey>  (69) 
ZLQNXXPLNGVTOX-HOCLYGCPSA-N

>  <alias>  (69) 
None

>  <distance_score>  (69) 
1.658606

>  <ref_mols>  (69) 
7goy-a,7gp2-a

>  <smiles>  (69) 
Cc1nn([C@@H](C)C(=O)NNC(=O)C[C@H](c2c[nH]c3ccccc23)C(C)C)cc1Cl

$$$$
P61087
     RDKit          3D

 29 32  0  0  0  0  0  0  0  0999 V2000
   -7.7708   -0.3848   38.6631 C   0  0  0  0  0  0  0  0  0  0  0  0
   -6.5497   -0.4330   37.8228 C   0  0  0  0  0  0  0  0  0  0  0  0
   -6.6466   -0.4804   36.4893 N   0  0  0  0  0  0  0  0  0  0  0  0
   -5.3637   -0.4432   36.0506 N   0  0  0  0  0  0  0  0  0  0  0  0
   -5.1665   -0.2301   34.6126 C   0  0  2  0  0  0  0  0  0  0  0  0
   -4.1843   -1.2320   33.9669 C   0  0  0  0  0  0  0  0  0  0  0  0
   -3.3835   -0.7527   32.8676 N   0  0  0  0  0  0  0  0  0  0  0  0
   -2.8718   -1.4894   31.5912 C   0  0  0  0  0  0  0  0  0  0  0  0
   -3.0876   -2.5710   31.2037 O   0  0  0  0  0  0  0  0  0  0  0  0
   -2.0606   -0.4095   30.8494 C   0  0  2  0  0  0  0  0  0  0  0  0
   -1.6409   -0.7361   29.3996 C   0  0  0  0  0  0  0  0  0  0  0  0
   -1.0285    0.5386   28.9134 C   0  0  0  0  0  0  0  0  0  0  0  0
   -0.2098    1.2127   29.7968 C   0  0  0  0  0  0  0  0  0  0  0  0
    0.2256    2.3490   29.1839 N   0  0  0  0  0  0  0  0  0  0  0  0
   -0.5440    2.5778   28.0631 C   0  0  0  0  0  0  0  0  0  0  0  0
   -0.6484    3.7303   27.2753 C   0  0  0  0  0  0  0  0  0  0  0  0
   -1.6059    3.7385   26.2598 C   0  0  0  0  0  0  0  0  0  0  0  0
   -2.4019    2.6250   26.0222 C   0  0  0  0  0  0  0  0  0  0  0  0
   -2.2466    1.4556   26.7851 C   0  0  0  0  0  0  0  0  0  0  0  0
   -1.3215    1.4343   27.8471 C   0  0  0  0  0  0  0  0  0  0  0  0
   -0.0321    0.7868   31.1550 C   0  0  0  0  0  0  0  0  0  0  0  0
   -0.8905   -0.0065   31.7188 N   0  0  0  0  0  0  0  0  0  0  0  0
   -5.0128    1.2730   34.2414 C   0  0  0  0  0  0  0  0  0  0  0  0
   -6.2240    2.1048   34.6920 C   0  0  0  0  0  0  0  0  0  0  0  0
   -3.7472    1.9713   34.7426 C   0  0  0  0  0  0  0  0  0  0  0  0
   -4.4498   -0.5097   37.0825 C   0  0  0  0  0  0  0  0  0  0  0  0
   -2.9718   -0.5806   36.9444 C   0  0  0  0  0  0  0  0  0  0  0  0
   -5.2044   -0.4869   38.2386 C   0  0  0  0  0  0  0  0  0  0  0  0
   -4.6535   -0.5325   39.8427 Cl  0  0  0  0  0  0  0  0  0  0  0  0
  1  2  1  0
  2  3  2  0
  3  4  1  0
  4  5  1  0
  5  6  1  1
  6  7  1  0
  7  8  1  0
  8  9  2  0
 10  8  1  1
 10 11  1  0
 11 12  1  0
 12 13  2  0
 13 14  1  0
 14 15  1  0
 15 16  2  0
 16 17  1  0
 17 18  2  0
 18 19  1  0
 19 20  2  0
 13 21  1  0
 21 22  2  0
  5 23  1  0
 23 24  1  0
 23 25  1  0
  4 26  1  0
 26 27  1  0
 26 28  2  0
 28 29  1  0
 28  2  1  0
 22 10  1  0
 20 12  1  0
 20 15  1  0
M  END
>  <name>  (70) 
P61087

>  <HIPPO Compound ID>  (70) 
98519

>  <energy_score>  (70) 
-16.511537

>  <HIPPO Pose ID>  (70) 
61087

>  <inspiration_score>  (70) 
None

>  <ref_pdb>  (70) 
7go7-a

>  <inchikey>  (70) 
ABFRCUDVCOHWSH-AZUAARDMSA-N

>  <alias>  (70) 
None

>  <distance_score>  (70) 
0.934791

>  <ref_mols>  (70) 
7goy-a,7gp2-a

>  <smiles>  (70) 
Cc1nn([C@H](CNC(=O)[C@@H]2Cc3c([nH]c4ccccc34)C=N2)C(C)C)c(C)c1Cl

$$$$
P61090
     RDKit          3D

 29 31  0  0  0  0  0  0  0  0999 V2000
   -4.0290    3.2891   25.5050 C   0  0  0  0  0  0  0  0  0  0  0  0
   -2.8403    3.9061   25.0116 O   0  0  0  0  0  0  0  0  0  0  0  0
   -1.9169    3.9410   26.0170 C   0  0  0  0  0  0  0  0  0  0  0  0
   -1.6674    5.1613   26.6295 C   0  0  0  0  0  0  0  0  0  0  0  0
   -0.7671    5.2327   27.6910 C   0  0  0  0  0  0  0  0  0  0  0  0
   -0.0922    4.0665   28.0998 C   0  0  0  0  0  0  0  0  0  0  0  0
    0.8369    3.7791   29.1419 C   0  0  0  0  0  0  0  0  0  0  0  0
    1.3401    4.7219   30.1890 C   0  0  0  0  0  0  0  0  0  0  0  0
    0.3798    4.8557   31.3647 C   0  0  0  0  0  0  0  0  0  0  0  0
    0.6925    3.8869   32.4995 C   0  0  0  0  0  0  0  0  0  0  0  0
    1.2743    4.2354   33.4498 O   0  0  0  0  0  0  0  0  0  0  0  0
    0.0859    2.5056   32.1437 N   0  0  0  0  0  0  0  0  0  0  0  0
    0.1534    1.2449   32.8423 C   0  0  0  0  0  0  0  0  0  0  0  0
   -1.1364    0.3997   32.8743 C   0  0  1  0  0  0  0  0  0  0  0  0
   -2.4356    1.1545   33.2439 C   0  0  0  0  0  0  0  0  0  0  0  0
   -2.2841    1.9978   34.5135 C   0  0  0  0  0  0  0  0  0  0  0  0
   -3.6331    0.2111   33.4224 C   0  0  0  0  0  0  0  0  0  0  0  0
   -1.2681   -0.3758   31.6342 N   0  0  0  0  0  0  0  0  0  0  0  0
   -1.3623    0.2413   30.4330 N   0  0  0  0  0  0  0  0  0  0  0  0
   -1.2858   -0.7695   29.5510 C   0  0  0  0  0  0  0  0  0  0  0  0
   -1.4250   -0.5605   28.0948 C   0  0  0  0  0  0  0  0  0  0  0  0
   -1.1069   -2.0070   30.1930 C   0  0  0  0  0  0  0  0  0  0  0  0
   -0.7981   -3.4921   29.4438 Cl  0  0  0  0  0  0  0  0  0  0  0  0
   -1.2755   -1.7455   31.5297 C   0  0  0  0  0  0  0  0  0  0  0  0
   -1.3959   -2.6577   32.6844 C   0  0  0  0  0  0  0  0  0  0  0  0
    1.2012    2.4577   29.0019 C   0  0  0  0  0  0  0  0  0  0  0  0
    0.5205    1.9358   27.9431 N   0  0  0  0  0  0  0  0  0  0  0  0
   -0.3274    2.8732   27.4138 C   0  0  0  0  0  0  0  0  0  0  0  0
   -1.2516    2.7723   26.3773 C   0  0  0  0  0  0  0  0  0  0  0  0
  1  2  1  0
  2  3  1  0
  3  4  2  0
  4  5  1  0
  5  6  2  0
  6  7  1  0
  7  8  1  0
  8  9  1  0
  9 10  1  0
 10 11  2  0
 10 12  1  0
 12 13  1  0
 14 13  1  6
 14 15  1  0
 15 16  1  0
 15 17  1  0
 14 18  1  0
 18 19  1  0
 19 20  2  0
 20 21  1  0
 20 22  1  0
 22 23  1  0
 22 24  2  0
 24 25  1  0
  7 26  2  0
 26 27  1  0
 27 28  1  0
 28 29  2  0
 29  3  1  0
 28  6  1  0
 24 18  1  0
M  END
>  <name>  (71) 
P61090

>  <HIPPO Compound ID>  (71) 
98528

>  <energy_score>  (71) 
-50.475698

>  <HIPPO Pose ID>  (71) 
61090

>  <inspiration_score>  (71) 
None

>  <ref_pdb>  (71) 
7go7-a

>  <inchikey>  (71) 
PSOWDMUCURRYBH-FQEVSTJZSA-N

>  <alias>  (71) 
None

>  <distance_score>  (71) 
1.723134

>  <ref_mols>  (71) 
7goy-a,7gp2-a

>  <smiles>  (71) 
COc1ccc2c(CCC(=O)NC[C@@H](C(C)C)n3nc(C)c(Cl)c3C)c[nH]c2c1

$$$$
P61091
     RDKit          3D

 29 31  0  0  0  0  0  0  0  0999 V2000
   -0.9299    2.1356   33.6496 C   0  0  0  0  0  0  0  0  0  0  0  0
   -0.3692    1.4673   32.4005 C   0  0  0  0  0  0  0  0  0  0  0  0
   -1.2552    0.3009   31.9363 C   0  0  1  0  0  0  0  0  0  0  0  0
   -2.4379    0.7575   31.0661 C   0  0  0  0  0  0  0  0  0  0  0  0
   -3.5305    0.8075   31.4938 O   0  0  0  0  0  0  0  0  0  0  0  0
   -1.8718    1.1951   29.6674 N   0  0  0  0  0  0  0  0  0  0  0  0
   -2.5089    1.6566   28.5696 N   0  0  0  0  0  0  0  0  0  0  0  0
   -2.6737    1.0268   27.1624 C   0  0  0  0  0  0  0  0  0  0  0  0
   -2.3513   -0.0186   26.7607 O   0  0  0  0  0  0  0  0  0  0  0  0
   -3.2863    2.1211   26.2822 C   0  0  0  0  0  0  0  0  0  0  0  0
   -2.2078    2.8668   25.5042 C   0  0  0  0  0  0  0  0  0  0  0  0
   -1.0713    3.2183   26.3833 C   0  0  0  0  0  0  0  0  0  0  0  0
   -0.0915    2.3590   26.8393 C   0  0  0  0  0  0  0  0  0  0  0  0
    0.6084    2.9990   27.8170 N   0  0  0  0  0  0  0  0  0  0  0  0
    0.1953    4.3073   27.9031 C   0  0  0  0  0  0  0  0  0  0  0  0
    0.6602    5.3506   28.7140 C   0  0  0  0  0  0  0  0  0  0  0  0
    1.7611    5.2106   29.7241 C   0  0  0  0  0  0  0  0  0  0  0  0
    0.0748    6.6138   28.5059 C   0  0  0  0  0  0  0  0  0  0  0  0
   -0.9498    6.8078   27.5818 C   0  0  0  0  0  0  0  0  0  0  0  0
   -1.4378    5.7391   26.8297 C   0  0  0  0  0  0  0  0  0  0  0  0
   -0.8366    4.4779   26.9785 C   0  0  0  0  0  0  0  0  0  0  0  0
   -0.5404   -0.7048   31.1665 N   0  0  0  0  0  0  0  0  0  0  0  0
    0.2941   -0.2723   30.1911 N   0  0  0  0  0  0  0  0  0  0  0  0
    0.3546   -1.3098   29.3449 C   0  0  0  0  0  0  0  0  0  0  0  0
    1.0231   -1.1530   28.0350 C   0  0  0  0  0  0  0  0  0  0  0  0
   -0.3248   -2.4370   29.8576 C   0  0  0  0  0  0  0  0  0  0  0  0
   -0.4013   -3.9629   29.1255 Cl  0  0  0  0  0  0  0  0  0  0  0  0
   -0.9157   -2.0157   31.0292 C   0  0  0  0  0  0  0  0  0  0  0  0
   -1.8440   -2.6870   31.9694 C   0  0  0  0  0  0  0  0  0  0  0  0
  1  2  1  0
  3  2  1  6
  3  4  1  0
  4  5  2  0
  4  6  1  0
  6  7  1  0
  7  8  1  0
  8  9  2  0
  8 10  1  0
 10 11  1  0
 11 12  1  0
 12 13  2  0
 13 14  1  0
 14 15  1  0
 15 16  2  0
 16 17  1  0
 16 18  1  0
 18 19  2  0
 19 20  1  0
 20 21  2  0
  3 22  1  0
 22 23  1  0
 23 24  2  0
 24 25  1  0
 24 26  1  0
 26 27  1  0
 26 28  2  0
 28 29  1  0
 21 12  1  0
 28 22  1  0
 21 15  1  0
M  END
>  <name>  (72) 
P61091

>  <HIPPO Compound ID>  (72) 
98533

>  <energy_score>  (72) 
-6.883608

>  <HIPPO Pose ID>  (72) 
61091

>  <inspiration_score>  (72) 
None

>  <ref_pdb>  (72) 
7go7-a

>  <inchikey>  (72) 
PFZIIKDUDDUZEJ-KRWDZBQOSA-N

>  <alias>  (72) 
None

>  <distance_score>  (72) 
1.890226

>  <ref_mols>  (72) 
7goy-a,7gp2-a

>  <smiles>  (72) 
CC[C@@H](C(=O)NNC(=O)CCc1c[nH]c2c(C)cccc12)n1nc(C)c(Cl)c1C

$$$$
P61093
     RDKit          3D

 29 32  0  0  0  0  0  0  0  0999 V2000
    1.1603   -3.3698   30.1226 C   0  0  0  0  0  0  0  0  0  0  0  0
    0.5101   -2.3844   31.0532 C   0  0  0  0  0  0  0  0  0  0  0  0
    0.4650   -2.5264   32.2715 O   0  0  0  0  0  0  0  0  0  0  0  0
   -0.0626   -1.3006   30.4458 N   0  0  0  0  0  0  0  0  0  0  0  0
    0.7142   -0.0735   30.2308 C   0  0  0  0  0  0  0  0  0  0  0  0
    0.1065    0.7103   29.1205 C   0  0  0  0  0  0  0  0  0  0  0  0
    0.4316    1.9991   28.7985 N   0  0  0  0  0  0  0  0  0  0  0  0
   -0.4600    2.4986   27.8741 C   0  0  0  0  0  0  0  0  0  0  0  0
   -0.5717    3.7852   27.3327 C   0  0  0  0  0  0  0  0  0  0  0  0
   -1.6178    4.0288   26.4368 C   0  0  0  0  0  0  0  0  0  0  0  0
   -2.5161    3.0263   26.0924 C   0  0  0  0  0  0  0  0  0  0  0  0
   -2.3853    1.7428   26.6394 C   0  0  0  0  0  0  0  0  0  0  0  0
   -1.3435    1.4687   27.5480 C   0  0  0  0  0  0  0  0  0  0  0  0
   -0.9637    0.3452   28.3312 C   0  0  0  0  0  0  0  0  0  0  0  0
   -1.6134   -0.9745   28.5259 C   0  0  0  0  0  0  0  0  0  0  0  0
   -1.4707   -1.3745   30.0072 C   0  0  2  0  0  0  0  0  0  0  0  0
   -2.3541   -0.4981   30.9568 C   0  0  0  0  0  0  0  0  0  0  0  0
   -2.9534    0.4336   30.5844 O   0  0  0  0  0  0  0  0  0  0  0  0
   -2.3214   -1.1834   32.3557 N   0  0  0  0  0  0  0  0  0  0  0  0
   -3.0393   -0.9346   33.4672 N   0  0  0  0  0  0  0  0  0  0  0  0
   -4.5776   -1.0760   33.7372 C   0  0  0  0  0  0  0  0  0  0  0  0
   -5.4526   -1.3552   33.0101 O   0  0  0  0  0  0  0  0  0  0  0  0
   -4.7753   -0.6613   35.1863 C   0  0  0  0  0  0  0  0  0  0  0  0
   -6.1405   -0.2872   35.5427 N   0  0  0  0  0  0  0  0  0  0  0  0
   -7.0083    0.5118   34.8506 C   0  0  0  0  0  0  0  0  0  0  0  0
   -8.0634    0.7548   35.6951 C   0  0  0  0  0  0  0  0  0  0  0  0
   -9.4498    1.6809   35.4165 Cl  0  0  0  0  0  0  0  0  0  0  0  0
   -7.7382    0.0831   36.8833 C   0  0  0  0  0  0  0  0  0  0  0  0
   -6.5580   -0.5404   36.8070 N   0  0  0  0  0  0  0  0  0  0  0  0
  1  2  1  0
  2  3  2  0
  2  4  1  0
  4  5  1  0
  5  6  1  0
  6  7  1  0
  7  8  1  0
  8  9  2  0
  9 10  1  0
 10 11  2  0
 11 12  1  0
 12 13  2  0
 13 14  1  0
 14 15  1  0
 15 16  1  0
 16 17  1  1
 17 18  2  0
 17 19  1  0
 19 20  1  0
 20 21  1  0
 21 22  2  0
 21 23  1  0
 23 24  1  0
 24 25  1  0
 25 26  2  0
 26 27  1  0
 26 28  1  0
 28 29  2  0
 16  4  1  0
 29 24  1  0
 14  6  2  0
 13  8  1  0
M  END
>  <name>  (73) 
P61093

>  <HIPPO Compound ID>  (73) 
98536

>  <energy_score>  (73) 
-11.477225

>  <HIPPO Pose ID>  (73) 
61093

>  <inspiration_score>  (73) 
None

>  <ref_pdb>  (73) 
7go7-a

>  <inchikey>  (73) 
OSANJMFQYACOLA-QGZVFWFLSA-N

>  <alias>  (73) 
None

>  <distance_score>  (73) 
1.550472

>  <ref_mols>  (73) 
7goy-a,7gp2-a

>  <smiles>  (73) 
CC(=O)N1Cc2[nH]c3ccccc3c2C[C@@H]1C(=O)NNC(=O)Cn1cc(Cl)cn1

$$$$
P61094
     RDKit          3D

 30 32  0  0  0  0  0  0  0  0999 V2000
   -2.1435   -1.0340   32.7219 C   0  0  0  0  0  0  0  0  0  0  0  0
   -1.3705   -1.1400   31.4644 C   0  0  0  0  0  0  0  0  0  0  0  0
   -1.0638   -2.2404   30.6967 C   0  0  0  0  0  0  0  0  0  0  0  0
   -1.3110   -3.8610   31.0924 Cl  0  0  0  0  0  0  0  0  0  0  0  0
   -0.4151   -1.7438   29.5605 C   0  0  0  0  0  0  0  0  0  0  0  0
   -0.1959   -0.4321   29.6585 N   0  0  0  0  0  0  0  0  0  0  0  0
   -0.6286   -0.1221   30.9045 N   0  0  0  0  0  0  0  0  0  0  0  0
    0.0308    0.9488   31.6357 C   0  0  0  0  0  0  0  0  0  0  0  0
    0.3038    2.2498   30.8861 C   0  0  0  0  0  0  0  0  0  0  0  0
    0.9886    2.0455   29.6472 N   0  0  0  0  0  0  0  0  0  0  0  0
    2.1834    2.8064   29.0205 C   0  0  0  0  0  0  0  0  0  0  0  0
    2.7442    3.7658   29.3828 O   0  0  0  0  0  0  0  0  0  0  0  0
    2.5012    2.1167   27.6618 C   0  0  1  0  0  0  0  0  0  0  0  0
    1.6365    2.7246   26.5449 C   0  0  0  0  0  0  0  0  0  0  0  0
    0.1629    2.4154   26.6245 C   0  0  0  0  0  0  0  0  0  0  0  0
   -0.4328    1.2386   27.0326 C   0  0  0  0  0  0  0  0  0  0  0  0
   -1.7810    1.4231   27.0800 N   0  0  0  0  0  0  0  0  0  0  0  0
   -2.0864    2.5927   26.4364 C   0  0  0  0  0  0  0  0  0  0  0  0
   -3.3173    3.0937   26.0277 C   0  0  0  0  0  0  0  0  0  0  0  0
   -3.3183    4.2666   25.2702 C   0  0  0  0  0  0  0  0  0  0  0  0
   -2.1533    4.9829   25.0380 C   0  0  0  0  0  0  0  0  0  0  0  0
   -0.9353    4.4969   25.5042 C   0  0  0  0  0  0  0  0  0  0  0  0
   -0.8927    3.2557   26.1685 C   0  0  0  0  0  0  0  0  0  0  0  0
    3.9429    2.3883   27.3608 N   0  0  0  0  0  0  0  0  0  0  0  0
    5.0349    1.2746   27.9658 S   0  0  0  0  0  0  0  0  0  0  0  0
    4.3808    0.4365   28.9418 O   0  0  0  0  0  0  0  0  0  0  0  0
    6.2232    2.0268   28.2914 O   0  0  0  0  0  0  0  0  0  0  0  0
    5.3508    0.3747   26.5776 N   0  0  0  0  0  0  0  0  0  0  0  0
    4.2264   -0.4027   26.0024 C   0  0  0  0  0  0  0  0  0  0  0  0
    6.5621   -0.4690   26.6798 C   0  0  0  0  0  0  0  0  0  0  0  0
  1  2  1  0
  2  3  2  0
  3  4  1  0
  3  5  1  0
  5  6  2  0
  6  7  1  0
  7  8  1  0
  8  9  1  0
  9 10  1  0
 10 11  1  0
 11 12  2  0
 11 13  1  0
 13 14  1  6
 14 15  1  0
 15 16  2  0
 16 17  1  0
 17 18  1  0
 18 19  2  0
 19 20  1  0
 20 21  2  0
 21 22  1  0
 22 23  2  0
 13 24  1  0
 24 25  1  0
 25 26  2  0
 25 27  2  0
 25 28  1  0
 28 29  1  0
 28 30  1  0
  7  2  1  0
 23 15  1  0
 23 18  1  0
M  END
>  <name>  (74) 
P61094

>  <HIPPO Compound ID>  (74) 
98559

>  <energy_score>  (74) 
-25.825205

>  <HIPPO Pose ID>  (74) 
61094

>  <inspiration_score>  (74) 
None

>  <ref_pdb>  (74) 
7go7-a

>  <inchikey>  (74) 
GRVHAVMCGQHTIF-GOSISDBHSA-N

>  <alias>  (74) 
None

>  <distance_score>  (74) 
1.708303

>  <ref_mols>  (74) 
7goy-a,7gp2-a

>  <smiles>  (74) 
Cc1c(Cl)cnn1CCNC(=O)[C@@H](Cc1c[nH]c2ccccc12)NS(=O)(=O)N(C)C

$$$$
P61096
     RDKit          3D

 30 32  0  0  0  0  0  0  0  0999 V2000
   -3.0519   -0.9176   32.1829 C   0  0  0  0  0  0  0  0  0  0  0  0
   -1.7531   -0.4240   31.6648 C   0  0  0  0  0  0  0  0  0  0  0  0
   -1.1657    0.6296   32.2539 N   0  0  0  0  0  0  0  0  0  0  0  0
    0.0102    0.7562   31.6019 N   0  0  0  0  0  0  0  0  0  0  0  0
    1.0059    1.6954   32.0888 C   0  0  0  0  0  0  0  0  0  0  0  0
    0.5453    3.1491   32.0457 C   0  0  0  0  0  0  0  0  0  0  0  0
    0.7009    3.7773   30.7538 N   0  0  0  0  0  0  0  0  0  0  0  0
    1.8794    4.1655   30.0313 C   0  0  0  0  0  0  0  0  0  0  0  0
    3.0418    3.9964   30.2791 O   0  0  0  0  0  0  0  0  0  0  0  0
    1.5106    4.9495   28.7406 C   0  0  2  0  0  0  0  0  0  0  0  0
    1.7778    4.0809   27.5063 C   0  0  0  0  0  0  0  0  0  0  0  0
    0.7537    3.0000   27.3515 C   0  0  0  0  0  0  0  0  0  0  0  0
    0.9261    1.6624   27.6429 C   0  0  0  0  0  0  0  0  0  0  0  0
   -0.2583    1.0171   27.4208 N   0  0  0  0  0  0  0  0  0  0  0  0
   -1.1914    1.9056   26.9444 C   0  0  0  0  0  0  0  0  0  0  0  0
   -2.5136    1.6915   26.5554 C   0  0  0  0  0  0  0  0  0  0  0  0
   -3.2424    2.7891   26.0927 C   0  0  0  0  0  0  0  0  0  0  0  0
   -2.6646    4.0522   26.0209 C   0  0  0  0  0  0  0  0  0  0  0  0
   -1.3402    4.2531   26.4178 C   0  0  0  0  0  0  0  0  0  0  0  0
   -0.5857    3.1581   26.8832 C   0  0  0  0  0  0  0  0  0  0  0  0
    2.3994    6.1566   28.6906 N   0  0  0  0  0  0  0  0  0  0  0  0
    1.8193    7.4780   29.5435 S   0  0  0  0  0  0  0  0  0  0  0  0
    1.3651    7.0037   30.8278 O   0  0  0  0  0  0  0  0  0  0  0  0
    2.7887    8.5381   29.4226 O   0  0  0  0  0  0  0  0  0  0  0  0
    0.4808    7.8490   28.5877 N   0  0  0  0  0  0  0  0  0  0  0  0
    0.7905    8.3704   27.2410 C   0  0  0  0  0  0  0  0  0  0  0  0
   -0.5475    8.6605   29.2703 C   0  0  0  0  0  0  0  0  0  0  0  0
    0.1747   -0.1644   30.6090 C   0  0  0  0  0  0  0  0  0  0  0  0
   -0.9649   -0.9282   30.6043 C   0  0  0  0  0  0  0  0  0  0  0  0
   -1.3197   -2.2267   29.5789 Cl  0  0  0  0  0  0  0  0  0  0  0  0
  1  2  1  0
  2  3  2  0
  3  4  1  0
  4  5  1  0
  5  6  1  0
  6  7  1  0
  7  8  1  0
  8  9  2  0
  8 10  1  0
 10 11  1  6
 11 12  1  0
 12 13  2  0
 13 14  1  0
 14 15  1  0
 15 16  2  0
 16 17  1  0
 17 18  2  0
 18 19  1  0
 19 20  2  0
 10 21  1  0
 21 22  1  0
 22 23  2  0
 22 24  2  0
 22 25  1  0
 25 26  1  0
 25 27  1  0
  4 28  1  0
 28 29  2  0
 29 30  1  0
 29  2  1  0
 20 12  1  0
 20 15  1  0
M  END
>  <name>  (75) 
P61096

>  <HIPPO Compound ID>  (75) 
98561

>  <energy_score>  (75) 
-57.48209

>  <HIPPO Pose ID>  (75) 
61096

>  <inspiration_score>  (75) 
None

>  <ref_pdb>  (75) 
7go7-a

>  <inchikey>  (75) 
CRSIQGAFPBONBO-SFHVURJKSA-N

>  <alias>  (75) 
None

>  <distance_score>  (75) 
1.899534

>  <ref_mols>  (75) 
7goy-a,7gp2-a

>  <smiles>  (75) 
Cc1nn(CCNC(=O)[C@H](Cc2c[nH]c3ccccc23)NS(=O)(=O)N(C)C)cc1Cl

$$$$
P61099
     RDKit          3D

 30 32  0  0  0  0  0  0  0  0999 V2000
   -1.4071   -0.8264   28.8721 C   0  0  0  0  0  0  0  0  0  0  0  0
   -0.4640    0.3694   29.0074 C   0  0  2  0  0  0  0  0  0  0  0  0
   -0.0549    0.5817   30.4748 C   0  0  0  0  0  0  0  0  0  0  0  0
    1.0743    0.5315   30.7843 O   0  0  0  0  0  0  0  0  0  0  0  0
   -1.3382    0.7419   31.3517 N   0  0  0  0  0  0  0  0  0  0  0  0
   -1.4720    0.9527   32.6809 N   0  0  0  0  0  0  0  0  0  0  0  0
   -2.7184    1.3620   33.5185 C   0  0  0  0  0  0  0  0  0  0  0  0
   -3.7986    1.6537   33.1770 O   0  0  0  0  0  0  0  0  0  0  0  0
   -2.3039    1.3469   34.9910 C   0  0  0  0  0  0  0  0  0  0  0  0
   -2.1601   -0.0761   35.5545 C   0  0  1  0  0  0  0  0  0  0  0  0
   -0.9892   -0.6348   34.8862 O   0  0  0  0  0  0  0  0  0  0  0  0
   -1.8871   -0.0722   37.0608 C   0  0  0  0  0  0  0  0  0  0  0  0
   -0.7484   -0.5688   37.6791 C   0  0  0  0  0  0  0  0  0  0  0  0
   -0.9147   -0.5088   39.0352 N   0  0  0  0  0  0  0  0  0  0  0  0
   -2.1274    0.0611   39.3336 C   0  0  0  0  0  0  0  0  0  0  0  0
   -2.7030    0.3185   40.5838 C   0  0  0  0  0  0  0  0  0  0  0  0
   -3.9654    0.9123   40.6086 C   0  0  0  0  0  0  0  0  0  0  0  0
   -4.6229    1.2348   39.4268 C   0  0  0  0  0  0  0  0  0  0  0  0
   -4.0339    0.9668   38.1844 C   0  0  0  0  0  0  0  0  0  0  0  0
   -2.7577    0.3645   38.1241 C   0  0  0  0  0  0  0  0  0  0  0  0
   -3.4186   -0.9419   35.2393 C   0  0  0  0  0  0  0  0  0  0  0  0
   -3.3729   -2.1271   35.9068 F   0  0  0  0  0  0  0  0  0  0  0  0
   -3.4878   -1.2726   33.9259 F   0  0  0  0  0  0  0  0  0  0  0  0
   -4.5796   -0.3391   35.5611 F   0  0  0  0  0  0  0  0  0  0  0  0
   -0.9058    1.6048   28.3728 N   0  0  0  0  0  0  0  0  0  0  0  0
   -0.1580    2.7407   28.2127 C   0  0  0  0  0  0  0  0  0  0  0  0
   -0.9327    3.6102   27.4847 C   0  0  0  0  0  0  0  0  0  0  0  0
   -0.5518    5.1757   26.9776 Cl  0  0  0  0  0  0  0  0  0  0  0  0
   -2.1250    2.9127   27.2339 C   0  0  0  0  0  0  0  0  0  0  0  0
   -2.1066    1.6797   27.7575 N   0  0  0  0  0  0  0  0  0  0  0  0
  2  1  1  1
  2  3  1  0
  3  4  2  0
  3  5  1  0
  5  6  1  0
  6  7  1  0
  7  8  2  0
  7  9  1  0
  9 10  1  0
 10 11  1  6
 10 12  1  0
 12 13  2  0
 13 14  1  0
 14 15  1  0
 15 16  2  0
 16 17  1  0
 17 18  2  0
 18 19  1  0
 19 20  2  0
 10 21  1  0
 21 22  1  0
 21 23  1  0
 21 24  1  0
  2 25  1  0
 25 26  1  0
 26 27  2  0
 27 28  1  0
 27 29  1  0
 29 30  2  0
 20 12  1  0
 30 25  1  0
 20 15  1  0
M  END
>  <name>  (76) 
P61099

>  <HIPPO Compound ID>  (76) 
98629

>  <energy_score>  (76) 
-7.841353

>  <HIPPO Pose ID>  (76) 
61099

>  <inspiration_score>  (76) 
None

>  <ref_pdb>  (76) 
7go7-a

>  <inchikey>  (76) 
HJPANBRTWWCFSF-BMLIUANNSA-N

>  <alias>  (76) 
None

>  <distance_score>  (76) 
1.044193

>  <ref_mols>  (76) 
7goy-a,7gp2-a

>  <smiles>  (76) 
C[C@H](C(=O)NNC(=O)C[C@@](O)(c1c[nH]c2ccccc12)C(F)(F)F)n1cc(Cl)cn1

$$$$
P61100
     RDKit          3D

 30 32  0  0  0  0  0  0  0  0999 V2000
   -3.0167   -1.5808   31.9871 C   0  0  0  0  0  0  0  0  0  0  0  0
   -1.8070   -0.8943   31.4837 C   0  0  0  0  0  0  0  0  0  0  0  0
   -1.2721    0.0927   32.2142 N   0  0  0  0  0  0  0  0  0  0  0  0
   -0.1692    0.4514   31.5352 N   0  0  0  0  0  0  0  0  0  0  0  0
    0.6956    1.4884   32.0812 C   0  0  0  0  0  0  0  0  0  0  0  0
    0.5348    2.7360   31.2353 C   0  0  0  0  0  0  0  0  0  0  0  0
   -0.3209    3.5122   31.4060 O   0  0  0  0  0  0  0  0  0  0  0  0
    1.6217    2.6635   30.1272 N   0  0  0  0  0  0  0  0  0  0  0  0
    1.8017    3.4162   29.0397 N   0  0  0  0  0  0  0  0  0  0  0  0
    3.0413    3.5785   28.1215 C   0  0  0  0  0  0  0  0  0  0  0  0
    4.1183    3.1386   28.2198 O   0  0  0  0  0  0  0  0  0  0  0  0
    2.5870    4.3826   26.9113 C   0  0  0  0  0  0  0  0  0  0  0  0
    1.9517    3.4683   25.8225 C   0  0  1  0  0  0  0  0  0  0  0  0
    2.8377    2.3267   25.6604 O   0  0  0  0  0  0  0  0  0  0  0  0
    0.5647    2.9287   26.2479 C   0  0  0  0  0  0  0  0  0  0  0  0
    0.3802    1.7660   26.9942 C   0  0  0  0  0  0  0  0  0  0  0  0
   -0.9448    1.5785   27.2321 N   0  0  0  0  0  0  0  0  0  0  0  0
   -1.6518    2.5259   26.5442 C   0  0  0  0  0  0  0  0  0  0  0  0
   -3.0251    2.6245   26.3520 C   0  0  0  0  0  0  0  0  0  0  0  0
   -3.5189    3.6448   25.5471 C   0  0  0  0  0  0  0  0  0  0  0  0
   -2.6700    4.5990   25.0195 C   0  0  0  0  0  0  0  0  0  0  0  0
   -1.2942    4.5069   25.2362 C   0  0  0  0  0  0  0  0  0  0  0  0
   -0.7532    3.4235   25.9647 C   0  0  0  0  0  0  0  0  0  0  0  0
    1.9549    4.2946   24.5020 C   0  0  0  0  0  0  0  0  0  0  0  0
    1.2744    3.6737   23.5137 F   0  0  0  0  0  0  0  0  0  0  0  0
    3.2220    4.4806   24.0452 F   0  0  0  0  0  0  0  0  0  0  0  0
    1.4367    5.5323   24.6651 F   0  0  0  0  0  0  0  0  0  0  0  0
   -0.0023   -0.2552   30.3765 C   0  0  0  0  0  0  0  0  0  0  0  0
   -1.0569   -1.1318   30.3113 C   0  0  0  0  0  0  0  0  0  0  0  0
   -1.3530   -2.2717   29.1023 Cl  0  0  0  0  0  0  0  0  0  0  0  0
  1  2  1  0
  2  3  2  0
  3  4  1  0
  4  5  1  0
  5  6  1  0
  6  7  2  0
  6  8  1  0
  8  9  1  0
  9 10  1  0
 10 11  2  0
 10 12  1  0
 12 13  1  0
 13 14  1  6
 13 15  1  0
 15 16  2  0
 16 17  1  0
 17 18  1  0
 18 19  2  0
 19 20  1  0
 20 21  2  0
 21 22  1  0
 22 23  2  0
 13 24  1  0
 24 25  1  0
 24 26  1  0
 24 27  1  0
  4 28  1  0
 28 29  2  0
 29 30  1  0
 29  2  1  0
 23 15  1  0
 23 18  1  0
M  END
>  <name>  (77) 
P61100

>  <HIPPO Compound ID>  (77) 
98630

>  <energy_score>  (77) 
-26.860505

>  <HIPPO Pose ID>  (77) 
61100

>  <inspiration_score>  (77) 
None

>  <ref_pdb>  (77) 
7go7-a

>  <inchikey>  (77) 
CVRBKIREKFSFIQ-QGZVFWFLSA-N

>  <alias>  (77) 
None

>  <distance_score>  (77) 
1.639316

>  <ref_mols>  (77) 
7goy-a,7gp2-a

>  <smiles>  (77) 
Cc1nn(CC(=O)NNC(=O)C[C@@](O)(c2c[nH]c3ccccc23)C(F)(F)F)cc1Cl

$$$$
P61101
     RDKit          3D

 30 32  0  0  0  0  0  0  0  0999 V2000
   -0.5167    4.4972   22.7463 C   0  0  0  0  0  0  0  0  0  0  0  0
   -1.8535    4.5540   23.4952 C   0  0  0  0  0  0  0  0  0  0  0  0
   -2.2691    6.0058   23.6947 C   0  0  0  0  0  0  0  0  0  0  0  0
   -1.8468    3.6536   24.7532 C   0  0  2  0  0  0  0  0  0  0  0  0
   -3.1928    3.5604   25.5108 C   0  0  0  0  0  0  0  0  0  0  0  0
   -3.1394    2.2661   26.3268 C   0  0  0  0  0  0  0  0  0  0  0  0
   -3.4994    1.2618   25.8733 O   0  0  0  0  0  0  0  0  0  0  0  0
   -2.4746    2.5650   27.6733 N   0  0  0  0  0  0  0  0  0  0  0  0
   -2.0259    1.6793   28.7073 C   0  0  0  0  0  0  0  0  0  0  0  0
   -1.4270    0.3741   28.2186 C   0  0  0  0  0  0  0  0  0  0  0  0
   -1.1577   -0.5202   29.3310 N   0  0  0  0  0  0  0  0  0  0  0  0
   -0.4919   -1.7025   29.2534 C   0  0  0  0  0  0  0  0  0  0  0  0
   -0.8277   -2.3866   30.3951 C   0  0  0  0  0  0  0  0  0  0  0  0
   -0.3957   -3.9763   30.7901 Cl  0  0  0  0  0  0  0  0  0  0  0  0
   -1.6631   -1.5163   31.1349 C   0  0  0  0  0  0  0  0  0  0  0  0
   -2.4496   -1.8445   32.3597 C   0  0  0  0  0  0  0  0  0  0  0  0
   -3.5592   -2.5572   32.0075 F   0  0  0  0  0  0  0  0  0  0  0  0
   -2.8921   -0.7479   33.0325 F   0  0  0  0  0  0  0  0  0  0  0  0
   -1.7416   -2.5906   33.2425 F   0  0  0  0  0  0  0  0  0  0  0  0
   -1.7693   -0.3272   30.5163 N   0  0  0  0  0  0  0  0  0  0  0  0
   -0.7312    3.8277   25.7543 C   0  0  0  0  0  0  0  0  0  0  0  0
    0.2070    2.8624   26.0652 C   0  0  0  0  0  0  0  0  0  0  0  0
    0.8552    3.2158   27.2089 N   0  0  0  0  0  0  0  0  0  0  0  0
    0.4192    4.4467   27.6198 C   0  0  0  0  0  0  0  0  0  0  0  0
    0.7985    5.2119   28.7222 C   0  0  0  0  0  0  0  0  0  0  0  0
    2.0794    4.5866   29.9623 Br  0  0  0  0  0  0  0  0  0  0  0  0
    0.2264    6.4716   28.8865 C   0  0  0  0  0  0  0  0  0  0  0  0
   -0.7467    6.9202   28.0004 C   0  0  0  0  0  0  0  0  0  0  0  0
   -1.1769    6.1135   26.9409 C   0  0  0  0  0  0  0  0  0  0  0  0
   -0.5491    4.8764   26.7065 C   0  0  0  0  0  0  0  0  0  0  0  0
  1  2  1  0
  2  3  1  0
  2  4  1  0
  4  5  1  1
  5  6  1  0
  6  7  2  0
  6  8  1  0
  8  9  1  0
  9 10  1  0
 10 11  1  0
 11 12  1  0
 12 13  2  0
 13 14  1  0
 13 15  1  0
 15 16  1  0
 16 17  1  0
 16 18  1  0
 16 19  1  0
 15 20  2  0
  4 21  1  0
 21 22  2  0
 22 23  1  0
 23 24  1  0
 24 25  2  0
 25 26  1  0
 25 27  1  0
 27 28  2  0
 28 29  1  0
 29 30  2  0
 20 11  1  0
 30 21  1  0
 30 24  1  0
M  END
>  <name>  (78) 
P61101

>  <HIPPO Compound ID>  (78) 
98632

>  <energy_score>  (78) 
-14.722713

>  <HIPPO Pose ID>  (78) 
61101

>  <inspiration_score>  (78) 
None

>  <ref_pdb>  (78) 
7go7-a

>  <inchikey>  (78) 
HJCZPXPHHQBGKC-ZDUSSCGKSA-N

>  <alias>  (78) 
None

>  <distance_score>  (78) 
1.935132

>  <ref_mols>  (78) 
7goy-a,7gp2-a

>  <smiles>  (78) 
CC(C)[C@H](CC(=O)NCCn1cc(Cl)c(C(F)(F)F)n1)c1c[nH]c2c(Br)cccc12

$$$$
P61103
     RDKit          3D

 30 32  0  0  0  0  0  0  0  0999 V2000
    2.4784   -0.3437   33.6924 C   0  0  0  0  0  0  0  0  0  0  0  0
    1.0319   -0.5717   34.1076 C   0  0  0  0  0  0  0  0  0  0  0  0
   -0.0537    0.1256   33.2713 C   0  0  1  0  0  0  0  0  0  0  0  0
    0.0835    1.6631   33.2203 C   0  0  0  0  0  0  0  0  0  0  0  0
   -0.5006    2.3620   33.9559 O   0  0  0  0  0  0  0  0  0  0  0  0
    0.9995    2.0120   32.0104 N   0  0  0  0  0  0  0  0  0  0  0  0
    1.2839    3.1966   31.4452 N   0  0  0  0  0  0  0  0  0  0  0  0
    0.4328    4.4906   31.3347 C   0  0  0  0  0  0  0  0  0  0  0  0
   -0.6128    4.7489   31.7850 O   0  0  0  0  0  0  0  0  0  0  0  0
    1.1693    5.4302   30.3865 C   0  0  0  0  0  0  0  0  0  0  0  0
    1.4747    4.8292   28.9983 C   0  0  0  0  0  0  0  0  0  0  0  0
    0.4467    3.8852   28.4256 C   0  0  0  0  0  0  0  0  0  0  0  0
    0.3725    2.5220   28.6449 C   0  0  0  0  0  0  0  0  0  0  0  0
   -0.7361    2.0255   28.0228 N   0  0  0  0  0  0  0  0  0  0  0  0
   -1.2826    2.9961   27.2314 C   0  0  0  0  0  0  0  0  0  0  0  0
   -2.3413    2.9207   26.3320 C   0  0  0  0  0  0  0  0  0  0  0  0
   -2.6465    4.0797   25.6172 C   0  0  0  0  0  0  0  0  0  0  0  0
   -3.6533    3.9274   24.7118 O   0  0  0  0  0  0  0  0  0  0  0  0
   -3.6213    4.7971   23.5850 C   0  0  0  0  0  0  0  0  0  0  0  0
   -1.9871    5.2823   25.8581 C   0  0  0  0  0  0  0  0  0  0  0  0
   -0.9597    5.3494   26.7994 C   0  0  0  0  0  0  0  0  0  0  0  0
   -0.5784    4.1800   27.4794 C   0  0  0  0  0  0  0  0  0  0  0  0
   -0.2717   -0.4645   31.9388 N   0  0  0  0  0  0  0  0  0  0  0  0
    0.7185   -0.3789   31.0073 N   0  0  0  0  0  0  0  0  0  0  0  0
    0.1999   -0.9364   29.9072 C   0  0  0  0  0  0  0  0  0  0  0  0
    0.9693   -1.0181   28.6356 C   0  0  0  0  0  0  0  0  0  0  0  0
   -1.0954   -1.4144   30.1515 C   0  0  0  0  0  0  0  0  0  0  0  0
   -2.0284   -2.2110   29.0113 Cl  0  0  0  0  0  0  0  0  0  0  0  0
   -1.3909   -1.1086   31.4607 C   0  0  0  0  0  0  0  0  0  0  0  0
   -2.6083   -1.3749   32.2671 C   0  0  0  0  0  0  0  0  0  0  0  0
  1  2  1  0
  3  2  1  6
  3  4  1  0
  4  5  2  0
  4  6  1  0
  6  7  1  0
  7  8  1  0
  8  9  2  0
  8 10  1  0
 10 11  1  0
 11 12  1  0
 12 13  2  0
 13 14  1  0
 14 15  1  0
 15 16  2  0
 16 17  1  0
 17 18  1  0
 18 19  1  0
 17 20  2  0
 20 21  1  0
 21 22  2  0
  3 23  1  0
 23 24  1  0
 24 25  2  0
 25 26  1  0
 25 27  1  0
 27 28  1  0
 27 29  2  0
 29 30  1  0
 22 12  1  0
 29 23  1  0
 22 15  1  0
M  END
>  <name>  (79) 
P61103

>  <HIPPO Compound ID>  (79) 
98642

>  <energy_score>  (79) 
-1.214478

>  <HIPPO Pose ID>  (79) 
61103

>  <inspiration_score>  (79) 
None

>  <ref_pdb>  (79) 
7go7-a

>  <inchikey>  (79) 
LTIWGVMOJFVAEN-SFHVURJKSA-N

>  <alias>  (79) 
None

>  <distance_score>  (79) 
1.26512

>  <ref_mols>  (79) 
7goy-a,7gp2-a

>  <smiles>  (79) 
CC[C@@H](C(=O)NNC(=O)CCc1c[nH]c2cc(OC)ccc12)n1nc(C)c(Cl)c1C

$$$$
P61105
     RDKit          3D

 30 32  0  0  0  0  0  0  0  0999 V2000
    1.1343    2.2550   30.6210 C   0  0  0  0  0  0  0  0  0  0  0  0
   -0.3295    2.3735   30.2092 C   0  0  0  0  0  0  0  0  0  0  0  0
   -0.7798    1.2358   29.2804 C   0  0  2  0  0  0  0  0  0  0  0  0
   -2.1977    1.3577   28.7202 C   0  0  0  0  0  0  0  0  0  0  0  0
   -2.4448    2.3646   27.7229 N   0  0  0  0  0  0  0  0  0  0  0  0
   -3.2419    2.2950   26.4103 C   0  0  0  0  0  0  0  0  0  0  0  0
   -3.7592    1.3944   25.8912 O   0  0  0  0  0  0  0  0  0  0  0  0
   -3.2156    3.6400   25.7002 C   0  0  0  0  0  0  0  0  0  0  0  0
   -1.9211    3.6589   24.8691 C   0  0  2  0  0  0  0  0  0  0  0  0
   -0.7603    3.8529   25.8002 C   0  0  0  0  0  0  0  0  0  0  0  0
    0.1973    2.9006   26.0844 C   0  0  0  0  0  0  0  0  0  0  0  0
    0.9930    3.3565   27.0899 N   0  0  0  0  0  0  0  0  0  0  0  0
    0.5614    4.5923   27.4929 C   0  0  0  0  0  0  0  0  0  0  0  0
    1.0568    5.4264   28.4955 C   0  0  0  0  0  0  0  0  0  0  0  0
    0.4456    6.6695   28.6775 C   0  0  0  0  0  0  0  0  0  0  0  0
   -0.6466    7.0368   27.9011 C   0  0  0  0  0  0  0  0  0  0  0  0
   -1.4469    8.7358   28.1522 Br  0  0  0  0  0  0  0  0  0  0  0  0
   -1.1670    6.1718   26.9339 C   0  0  0  0  0  0  0  0  0  0  0  0
   -0.5276    4.9401   26.6935 C   0  0  0  0  0  0  0  0  0  0  0  0
   -1.9664    4.5083   23.5753 C   0  0  0  0  0  0  0  0  0  0  0  0
   -2.3229    5.9804   23.7356 C   0  0  0  0  0  0  0  0  0  0  0  0
   -0.6720    4.3780   22.7634 C   0  0  0  0  0  0  0  0  0  0  0  0
   -0.7632   -0.0438   29.9919 N   0  0  0  0  0  0  0  0  0  0  0  0
   -1.4936   -0.1532   31.1293 N   0  0  0  0  0  0  0  0  0  0  0  0
   -1.5020   -1.4696   31.3776 C   0  0  0  0  0  0  0  0  0  0  0  0
   -2.2786   -1.9789   32.5303 C   0  0  0  0  0  0  0  0  0  0  0  0
   -0.7398   -2.1900   30.4239 C   0  0  0  0  0  0  0  0  0  0  0  0
   -0.4637   -3.8602   30.3963 Cl  0  0  0  0  0  0  0  0  0  0  0  0
   -0.2926   -1.2386   29.5504 C   0  0  0  0  0  0  0  0  0  0  0  0
    0.6268   -1.3373   28.1276 Cl  0  0  0  0  0  0  0  0  0  0  0  0
  1  2  1  0
  3  2  1  1
  3  4  1  0
  4  5  1  0
  5  6  1  0
  6  7  2  0
  6  8  1  0
  9  8  1  1
  9 10  1  0
 10 11  2  0
 11 12  1  0
 12 13  1  0
 13 14  2  0
 14 15  1  0
 15 16  2  0
 16 17  1  0
 16 18  1  0
 18 19  2  0
  9 20  1  0
 20 21  1  0
 20 22  1  0
  3 23  1  0
 23 24  1  0
 24 25  2  0
 25 26  1  0
 25 27  1  0
 27 28  1  0
 27 29  2  0
 29 30  1  0
 19 10  1  0
 29 23  1  0
 19 13  1  0
M  END
>  <name>  (80) 
P61105

>  <HIPPO Compound ID>  (80) 
98654

>  <energy_score>  (80) 
-51.049625

>  <HIPPO Pose ID>  (80) 
61105

>  <inspiration_score>  (80) 
None

>  <ref_pdb>  (80) 
7go7-a

>  <inchikey>  (80) 
YTJVNJVAFAYWST-CVEARBPZSA-N

>  <alias>  (80) 
None

>  <distance_score>  (80) 
1.923495

>  <ref_mols>  (80) 
7goy-a,7gp2-a

>  <smiles>  (80) 
CC[C@H](CNC(=O)C[C@H](c1c[nH]c2ccc(Br)cc12)C(C)C)n1nc(C)c(Cl)c1Cl

$$$$
P61106
     RDKit          3D

 30 32  0  0  0  0  0  0  0  0999 V2000
   -0.7980    5.0241   22.9437 C   0  0  0  0  0  0  0  0  0  0  0  0
   -2.0705    5.0422   23.8052 C   0  0  0  0  0  0  0  0  0  0  0  0
   -3.2881    4.9646   22.8747 C   0  0  0  0  0  0  0  0  0  0  0  0
   -2.0547    3.8908   24.8485 C   0  0  2  0  0  0  0  0  0  0  0  0
   -3.3245    3.7974   25.7241 C   0  0  0  0  0  0  0  0  0  0  0  0
   -3.3799    2.4110   26.3473 C   0  0  0  0  0  0  0  0  0  0  0  0
   -3.9724    1.5675   25.8150 O   0  0  0  0  0  0  0  0  0  0  0  0
   -2.5000    2.3675   27.6030 N   0  0  0  0  0  0  0  0  0  0  0  0
   -2.2403    1.2984   28.5205 C   0  0  0  0  0  0  0  0  0  0  0  0
   -0.8243    1.2127   29.0521 C   0  0  0  0  0  0  0  0  0  0  0  0
   -0.7571    0.0621   29.9345 N   0  0  0  0  0  0  0  0  0  0  0  0
   -0.2481   -1.1572   29.6138 C   0  0  0  0  0  0  0  0  0  0  0  0
   -0.7896   -2.0305   30.5220 C   0  0  0  0  0  0  0  0  0  0  0  0
   -0.5666   -3.7075   30.5797 Cl  0  0  0  0  0  0  0  0  0  0  0  0
   -1.6019   -1.2442   31.3745 C   0  0  0  0  0  0  0  0  0  0  0  0
   -2.5029   -1.7561   32.4508 C   0  0  0  0  0  0  0  0  0  0  0  0
   -3.1197   -0.7672   33.1516 F   0  0  0  0  0  0  0  0  0  0  0  0
   -3.4954   -2.5241   31.9118 F   0  0  0  0  0  0  0  0  0  0  0  0
   -1.8287   -2.5201   33.3444 F   0  0  0  0  0  0  0  0  0  0  0  0
   -1.5083    0.0626   31.0520 N   0  0  0  0  0  0  0  0  0  0  0  0
   -0.8714    3.9254   25.7829 C   0  0  0  0  0  0  0  0  0  0  0  0
    0.0590    2.9269   25.9713 C   0  0  0  0  0  0  0  0  0  0  0  0
    0.8367    3.2400   27.0472 N   0  0  0  0  0  0  0  0  0  0  0  0
    0.4456    4.4484   27.5602 C   0  0  0  0  0  0  0  0  0  0  0  0
    0.9392    5.1588   28.6531 C   0  0  0  0  0  0  0  0  0  0  0  0
    0.4284    6.4404   28.8805 C   0  0  0  0  0  0  0  0  0  0  0  0
   -0.5696    6.9611   28.0626 C   0  0  0  0  0  0  0  0  0  0  0  0
   -1.2088    8.7188   28.3668 Br  0  0  0  0  0  0  0  0  0  0  0  0
   -1.1128    6.2083   27.0174 C   0  0  0  0  0  0  0  0  0  0  0  0
   -0.5735    4.9377   26.7424 C   0  0  0  0  0  0  0  0  0  0  0  0
  1  2  1  0
  2  3  1  0
  2  4  1  0
  4  5  1  1
  5  6  1  0
  6  7  2  0
  6  8  1  0
  8  9  1  0
  9 10  1  0
 10 11  1  0
 11 12  1  0
 12 13  2  0
 13 14  1  0
 13 15  1  0
 15 16  1  0
 16 17  1  0
 16 18  1  0
 16 19  1  0
 15 20  2  0
  4 21  1  0
 21 22  2  0
 22 23  1  0
 23 24  1  0
 24 25  2  0
 25 26  1  0
 26 27  2  0
 27 28  1  0
 27 29  1  0
 29 30  2  0
 20 11  1  0
 30 21  1  0
 30 24  1  0
M  END
>  <name>  (81) 
P61106

>  <HIPPO Compound ID>  (81) 
98660

>  <energy_score>  (81) 
-39.71568

>  <HIPPO Pose ID>  (81) 
61106

>  <inspiration_score>  (81) 
None

>  <ref_pdb>  (81) 
7go7-a

>  <inchikey>  (81) 
QKTFFCFOEFCNTM-ZDUSSCGKSA-N

>  <alias>  (81) 
None

>  <distance_score>  (81) 
1.946369

>  <ref_mols>  (81) 
7goy-a,7gp2-a

>  <smiles>  (81) 
CC(C)[C@H](CC(=O)NCCn1cc(Cl)c(C(F)(F)F)n1)c1c[nH]c2ccc(Br)cc12

$$$$
P61107
     RDKit          3D

 31 34  0  0  0  0  0  0  0  0999 V2000
   -2.3164   -2.2494   32.3342 C   0  0  0  0  0  0  0  0  0  0  0  0
   -1.1106   -1.7082   31.6817 C   0  0  0  0  0  0  0  0  0  0  0  0
   -0.3799   -0.7796   32.3078 N   0  0  0  0  0  0  0  0  0  0  0  0
    0.5099   -0.3917   31.3769 N   0  0  0  0  0  0  0  0  0  0  0  0
    1.1624    0.8912   31.5820 C   0  0  0  0  0  0  0  0  0  0  0  0
    0.1536    2.0303   31.3968 C   0  0  0  0  0  0  0  0  0  0  0  0
   -0.5950    1.8469   30.1758 N   0  0  0  0  0  0  0  0  0  0  0  0
   -1.9418    1.1309   29.9215 C   0  0  0  0  0  0  0  0  0  0  0  0
   -2.6942    0.6447   30.6713 O   0  0  0  0  0  0  0  0  0  0  0  0
   -2.2117    1.0479   28.4264 C   0  0  0  0  0  0  0  0  0  0  0  0
   -1.0837    0.9467   27.4159 C   0  0  0  0  0  0  0  0  0  0  0  0
   -0.6652    2.2924   26.9398 C   0  0  0  0  0  0  0  0  0  0  0  0
    0.5516    2.9356   27.1336 C   0  0  0  0  0  0  0  0  0  0  0  0
    1.8525    2.5772   27.6963 C   0  0  0  0  0  0  0  0  0  0  0  0
    2.3407    3.2537   28.8243 C   0  0  0  0  0  0  0  0  0  0  0  0
    3.6156    2.9792   29.3262 C   0  0  0  0  0  0  0  0  0  0  0  0
    4.4219    2.0340   28.6968 C   0  0  0  0  0  0  0  0  0  0  0  0
    3.9602    1.3786   27.5579 C   0  0  0  0  0  0  0  0  0  0  0  0
    2.6863    1.6585   27.0554 C   0  0  0  0  0  0  0  0  0  0  0  0
    0.3777    4.2203   26.6986 N   0  0  0  0  0  0  0  0  0  0  0  0
   -0.8291    4.3825   26.0887 C   0  0  0  0  0  0  0  0  0  0  0  0
   -1.3617    5.4901   25.4330 C   0  0  0  0  0  0  0  0  0  0  0  0
   -0.4139    7.1195   25.3125 Br  0  0  0  0  0  0  0  0  0  0  0  0
   -2.6054    5.3573   24.8170 C   0  0  0  0  0  0  0  0  0  0  0  0
   -3.3191    4.1688   24.9174 C   0  0  0  0  0  0  0  0  0  0  0  0
   -2.7977    3.0909   25.6356 C   0  0  0  0  0  0  0  0  0  0  0  0
   -1.5093    3.1825   26.1987 C   0  0  0  0  0  0  0  0  0  0  0  0
    0.4981   -1.1772   30.2482 C   0  0  0  0  0  0  0  0  0  0  0  0
    1.4308   -1.0446   29.1063 C   0  0  0  0  0  0  0  0  0  0  0  0
   -0.5645   -2.0313   30.4226 C   0  0  0  0  0  0  0  0  0  0  0  0
   -1.0964   -3.2076   29.3388 Cl  0  0  0  0  0  0  0  0  0  0  0  0
  1  2  1  0
  2  3  2  0
  3  4  1  0
  4  5  1  0
  5  6  1  0
  6  7  1  0
  7  8  1  0
  8  9  2  0
  8 10  1  0
 10 11  1  0
 11 12  1  0
 12 13  2  0
 13 14  1  0
 14 15  2  0
 15 16  1  0
 16 17  2  0
 17 18  1  0
 18 19  2  0
 13 20  1  0
 20 21  1  0
 21 22  2  0
 22 23  1  0
 22 24  1  0
 24 25  2  0
 25 26  1  0
 26 27  2  0
  4 28  1  0
 28 29  1  0
 28 30  2  0
 30 31  1  0
 30  2  1  0
 27 12  1  0
 19 14  1  0
 27 21  1  0
M  END
>  <name>  (82) 
P61107

>  <HIPPO Compound ID>  (82) 
98697

>  <energy_score>  (82) 
-1.623979

>  <HIPPO Pose ID>  (82) 
61107

>  <inspiration_score>  (82) 
None

>  <ref_pdb>  (82) 
7go7-a

>  <inchikey>  (82) 
QFELTVWSUZFITD-UHFFFAOYSA-N

>  <alias>  (82) 
None

>  <distance_score>  (82) 
1.971741

>  <ref_mols>  (82) 
7goy-a,7gp2-a

>  <smiles>  (82) 
Cc1nn(CCNC(=O)CCc2c(-c3ccccc3)[nH]c3c(Br)cccc23)c(C)c1Cl

$$$$
P61108
     RDKit          3D

 31 33  0  0  0  0  0  0  0  0999 V2000
    1.1387   -1.3745   27.9209 C   0  0  0  0  0  0  0  0  0  0  0  0
    0.3897   -1.4022   29.1921 C   0  0  0  0  0  0  0  0  0  0  0  0
    0.4273   -0.3301   29.9814 N   0  0  0  0  0  0  0  0  0  0  0  0
   -0.5165   -0.5707   30.9011 N   0  0  0  0  0  0  0  0  0  0  0  0
   -1.0646    0.5737   31.5959 C   0  0  1  0  0  0  0  0  0  0  0  0
   -0.2537    0.8968   32.8461 C   0  0  0  0  0  0  0  0  0  0  0  0
   -1.1198    1.7499   30.6124 C   0  0  0  0  0  0  0  0  0  0  0  0
   -0.6230    2.7868   30.8569 O   0  0  0  0  0  0  0  0  0  0  0  0
   -2.0067    1.3062   29.3844 N   0  0  0  0  0  0  0  0  0  0  0  0
   -2.3458    1.9765   28.2607 N   0  0  0  0  0  0  0  0  0  0  0  0
   -2.7539    1.4513   26.8596 C   0  0  0  0  0  0  0  0  0  0  0  0
   -2.7852    0.3628   26.4398 O   0  0  0  0  0  0  0  0  0  0  0  0
   -3.0993    2.6758   25.9959 C   0  0  0  0  0  0  0  0  0  0  0  0
   -1.8515    3.0629   25.1859 C   0  0  2  0  0  0  0  0  0  0  0  0
   -0.7778    3.4305   26.1622 C   0  0  0  0  0  0  0  0  0  0  0  0
    0.1289    2.5122   26.6717 C   0  0  0  0  0  0  0  0  0  0  0  0
    0.7269    3.0514   27.7696 N   0  0  0  0  0  0  0  0  0  0  0  0
    0.3202    4.3516   27.9131 C   0  0  0  0  0  0  0  0  0  0  0  0
    0.7003    5.2929   28.8699 C   0  0  0  0  0  0  0  0  0  0  0  0
    0.1383    6.5665   28.7860 C   0  0  0  0  0  0  0  0  0  0  0  0
    0.6532    7.8901   30.0379 Br  0  0  0  0  0  0  0  0  0  0  0  0
   -0.8101    6.8702   27.8175 C   0  0  0  0  0  0  0  0  0  0  0  0
   -1.2277    5.8921   26.9060 C   0  0  0  0  0  0  0  0  0  0  0  0
   -0.6199    4.6242   26.9164 C   0  0  0  0  0  0  0  0  0  0  0  0
   -2.0876    3.9059   23.9084 C   0  0  0  0  0  0  0  0  0  0  0  0
   -0.7925    4.4488   23.2985 C   0  0  0  0  0  0  0  0  0  0  0  0
   -3.1582    4.9923   23.9634 C   0  0  0  0  0  0  0  0  0  0  0  0
   -1.0188   -1.8435   30.8603 C   0  0  0  0  0  0  0  0  0  0  0  0
   -2.0173   -2.3582   31.8280 C   0  0  0  0  0  0  0  0  0  0  0  0
   -0.4116   -2.4159   29.7585 C   0  0  0  0  0  0  0  0  0  0  0  0
   -0.5534   -3.9924   29.1633 Cl  0  0  0  0  0  0  0  0  0  0  0  0
  1  2  1  0
  2  3  2  0
  3  4  1  0
  4  5  1  0
  5  6  1  1
  5  7  1  0
  7  8  2  0
  7  9  1  0
  9 10  1  0
 10 11  1  0
 11 12  2  0
 11 13  1  0
 14 13  1  1
 14 15  1  0
 15 16  2  0
 16 17  1  0
 17 18  1  0
 18 19  2  0
 19 20  1  0
 20 21  1  0
 20 22  2  0
 22 23  1  0
 23 24  2  0
 14 25  1  0
 25 26  1  0
 25 27  1  0
  4 28  1  0
 28 29  1  0
 28 30  2  0
 30 31  1  0
 30  2  1  0
 24 15  1  0
 24 18  1  0
M  END
>  <name>  (83) 
P61108

>  <HIPPO Compound ID>  (83) 
98703

>  <energy_score>  (83) 
-23.457919

>  <HIPPO Pose ID>  (83) 
61108

>  <inspiration_score>  (83) 
None

>  <ref_pdb>  (83) 
7go7-a

>  <inchikey>  (83) 
FNQKKOPPXRVCLE-YOEHRIQHSA-N

>  <alias>  (83) 
None

>  <distance_score>  (83) 
1.924559

>  <ref_mols>  (83) 
7goy-a,7gp2-a

>  <smiles>  (83) 
Cc1nn([C@@H](C)C(=O)NNC(=O)C[C@H](c2c[nH]c3cc(Br)ccc23)C(C)C)c(C)c1Cl

$$$$
P61110
     RDKit          3D

 31 35  0  0  0  0  0  0  0  0999 V2000
   -4.7591   -0.3502   33.2666 C   0  0  0  0  0  0  0  0  0  0  0  0
   -3.3654   -0.6477   32.7868 C   0  0  0  0  0  0  0  0  0  0  0  0
   -2.5157   -1.3860   33.6026 C   0  0  0  0  0  0  0  0  0  0  0  0
   -1.2212   -1.7067   33.1969 C   0  0  0  0  0  0  0  0  0  0  0  0
   -0.8010   -1.2878   31.9322 C   0  0  0  0  0  0  0  0  0  0  0  0
    0.4285   -1.3949   31.3406 N   0  0  0  0  0  0  0  0  0  0  0  0
    0.4220   -0.8590   30.0783 C   0  0  0  0  0  0  0  0  0  0  0  0
    1.6430   -0.7660   29.2817 C   0  0  0  0  0  0  0  0  0  0  0  0
    1.7426   -1.3754   28.0272 C   0  0  0  0  0  0  0  0  0  0  0  0
    2.8963   -1.2191   27.2514 C   0  0  0  0  0  0  0  0  0  0  0  0
    3.9562   -0.4559   27.7350 C   0  0  0  0  0  0  0  0  0  0  0  0
    5.5084   -0.2148   26.6848 Br  0  0  0  0  0  0  0  0  0  0  0  0
    3.8786    0.1437   28.9899 C   0  0  0  0  0  0  0  0  0  0  0  0
    2.7238   -0.0114   29.7602 C   0  0  0  0  0  0  0  0  0  0  0  0
   -0.8834   -0.4683   29.8106 C   0  0  0  0  0  0  0  0  0  0  0  0
   -1.3794    0.0683   28.5035 C   0  0  0  0  0  0  0  0  0  0  0  0
   -0.9139    1.4908   28.2582 C   0  0  0  0  0  0  0  0  0  0  0  0
   -1.6259    2.1061   27.0671 C   0  0  0  0  0  0  0  0  0  0  0  0
   -2.0754    1.5025   26.1607 O   0  0  0  0  0  0  0  0  0  0  0  0
   -1.5621    3.5993   27.3144 N   0  0  0  0  0  0  0  0  0  0  0  0
   -2.1395    4.7520   26.5300 C   0  0  0  0  0  0  0  0  0  0  0  0
   -0.9183    5.5584   26.8861 C   0  0  0  0  0  0  0  0  0  0  0  0
   -0.5117    6.5189   25.8541 N   0  0  0  0  0  0  0  0  0  0  0  0
   -1.3171    7.5059   25.3601 C   0  0  0  0  0  0  0  0  0  0  0  0
   -0.5430    8.2116   24.4736 C   0  0  0  0  0  0  0  0  0  0  0  0
   -0.9803    9.5431   23.5294 Cl  0  0  0  0  0  0  0  0  0  0  0  0
    0.7183    7.5940   24.5196 C   0  0  0  0  0  0  0  0  0  0  0  0
    0.7499    6.5695   25.3786 N   0  0  0  0  0  0  0  0  0  0  0  0
   -0.2561    4.2173   26.7357 C   0  0  0  0  0  0  0  0  0  0  0  0
   -1.6254   -0.6208   31.0374 C   0  0  0  0  0  0  0  0  0  0  0  0
   -2.9119   -0.2580   31.5054 C   0  0  0  0  0  0  0  0  0  0  0  0
  1  2  1  0
  2  3  2  0
  3  4  1  0
  4  5  2  0
  5  6  1  0
  6  7  1  0
  7  8  1  0
  8  9  2  0
  9 10  1  0
 10 11  2  0
 11 12  1  0
 11 13  1  0
 13 14  2  0
  7 15  2  0
 15 16  1  0
 16 17  1  0
 17 18  1  0
 18 19  2  0
 18 20  1  0
 20 21  1  0
 21 22  1  0
 22 23  1  0
 23 24  1  0
 24 25  2  0
 25 26  1  0
 25 27  1  0
 27 28  2  0
 22 29  1  0
 15 30  1  0
 30 31  2  0
 31  2  1  0
 30  5  1  0
 14  8  1  0
 29 20  1  0
 28 23  1  0
M  END
>  <name>  (84) 
P61110

>  <HIPPO Compound ID>  (84) 
98706

>  <energy_score>  (84) 
-13.647144

>  <HIPPO Pose ID>  (84) 
61110

>  <inspiration_score>  (84) 
None

>  <ref_pdb>  (84) 
7go7-a

>  <inchikey>  (84) 
ZXKKWFFATFDFTJ-UHFFFAOYSA-N

>  <alias>  (84) 
None

>  <distance_score>  (84) 
1.851025

>  <ref_mols>  (84) 
7goy-a,7gp2-a

>  <smiles>  (84) 
Cc1ccc2[nH]c(-c3ccc(Br)cc3)c(CCC(=O)N3CC(n4cc(Cl)cn4)C3)c2c1

$$$$
P61111
     RDKit          3D

 31 34  0  0  0  0  0  0  0  0999 V2000
   -3.1770   -0.9171   32.3784 C   0  0  0  0  0  0  0  0  0  0  0  0
   -1.8548   -0.4309   31.9215 C   0  0  0  0  0  0  0  0  0  0  0  0
   -1.5910    0.8829   31.8219 N   0  0  0  0  0  0  0  0  0  0  0  0
   -0.2684    0.9204   31.5057 N   0  0  0  0  0  0  0  0  0  0  0  0
    0.5342    2.0611   31.9317 C   0  0  0  0  0  0  0  0  0  0  0  0
    0.3108    3.3583   31.1756 C   0  0  0  0  0  0  0  0  0  0  0  0
    0.8394    3.3837   29.8413 N   0  0  0  0  0  0  0  0  0  0  0  0
    2.2847    3.1837   29.3302 C   0  0  0  0  0  0  0  0  0  0  0  0
    3.2557    2.8913   29.9055 O   0  0  0  0  0  0  0  0  0  0  0  0
    2.2695    3.4600   27.8320 C   0  0  0  0  0  0  0  0  0  0  0  0
    1.7683    2.2536   27.0422 C   0  0  0  0  0  0  0  0  0  0  0  0
    0.2676    2.0855   27.0281 C   0  0  0  0  0  0  0  0  0  0  0  0
   -0.5015    0.9821   27.4203 C   0  0  0  0  0  0  0  0  0  0  0  0
   -0.1846   -0.4200   27.7824 C   0  0  0  0  0  0  0  0  0  0  0  0
   -1.1699   -1.2664   28.3127 C   0  0  0  0  0  0  0  0  0  0  0  0
   -0.9103   -2.6153   28.5769 C   0  0  0  0  0  0  0  0  0  0  0  0
    0.3478   -3.1536   28.3535 C   0  0  0  0  0  0  0  0  0  0  0  0
    1.3377   -2.3451   27.8201 C   0  0  0  0  0  0  0  0  0  0  0  0
    1.0643   -1.0039   27.5216 C   0  0  0  0  0  0  0  0  0  0  0  0
   -1.8093    1.4171   27.3652 N   0  0  0  0  0  0  0  0  0  0  0  0
   -1.9133    2.6111   26.7081 C   0  0  0  0  0  0  0  0  0  0  0  0
   -3.0450    3.2962   26.2684 C   0  0  0  0  0  0  0  0  0  0  0  0
   -2.8518    4.4614   25.5222 C   0  0  0  0  0  0  0  0  0  0  0  0
   -1.5774    4.9521   25.2871 C   0  0  0  0  0  0  0  0  0  0  0  0
   -1.3650    6.3945   24.3732 Cl  0  0  0  0  0  0  0  0  0  0  0  0
   -0.4600    4.2710   25.7649 C   0  0  0  0  0  0  0  0  0  0  0  0
   -0.6287    3.0606   26.4708 C   0  0  0  0  0  0  0  0  0  0  0  0
    0.2347   -0.3222   31.1981 C   0  0  0  0  0  0  0  0  0  0  0  0
    1.6012   -0.5187   30.6700 C   0  0  0  0  0  0  0  0  0  0  0  0
   -0.7247   -1.2154   31.6165 C   0  0  0  0  0  0  0  0  0  0  0  0
   -0.5999   -2.8974   31.8221 Cl  0  0  0  0  0  0  0  0  0  0  0  0
  1  2  1  0
  2  3  2  0
  3  4  1  0
  4  5  1  0
  5  6  1  0
  6  7  1  0
  7  8  1  0
  8  9  2  0
  8 10  1  0
 10 11  1  0
 11 12  1  0
 12 13  2  0
 13 14  1  0
 14 15  2  0
 15 16  1  0
 16 17  2  0
 17 18  1  0
 18 19  2  0
 13 20  1  0
 20 21  1  0
 21 22  2  0
 22 23  1  0
 23 24  2  0
 24 25  1  0
 24 26  1  0
 26 27  2  0
  4 28  1  0
 28 29  1  0
 28 30  2  0
 30 31  1  0
 30  2  1  0
 27 12  1  0
 19 14  1  0
 27 21  1  0
M  END
>  <name>  (85) 
P61111

>  <HIPPO Compound ID>  (85) 
98712

>  <energy_score>  (85) 
-7.666104

>  <HIPPO Pose ID>  (85) 
61111

>  <inspiration_score>  (85) 
None

>  <ref_pdb>  (85) 
7go7-a

>  <inchikey>  (85) 
RKEOIQQJIMFSLJ-UHFFFAOYSA-N

>  <alias>  (85) 
None

>  <distance_score>  (85) 
1.79883

>  <ref_mols>  (85) 
7goy-a,7gp2-a

>  <smiles>  (85) 
Cc1nn(CCNC(=O)CCc2c(-c3ccccc3)[nH]c3ccc(Cl)cc23)c(C)c1Cl

$$$$
P61112
     RDKit          3D

 31 34  0  0  0  0  0  0  0  0999 V2000
   -2.4446   -1.3298   32.1488 C   0  0  0  0  0  0  0  0  0  0  0  0
   -1.2640   -0.9575   31.3311 C   0  0  0  0  0  0  0  0  0  0  0  0
   -0.2690   -0.2380   31.8618 N   0  0  0  0  0  0  0  0  0  0  0  0
    0.6392   -0.1280   30.8644 N   0  0  0  0  0  0  0  0  0  0  0  0
    1.9541    0.4058   31.1792 C   0  0  0  0  0  0  0  0  0  0  0  0
    1.9454    1.8198   31.7544 C   0  0  0  0  0  0  0  0  0  0  0  0
    1.7968    2.8595   30.7623 N   0  0  0  0  0  0  0  0  0  0  0  0
    0.6860    3.9339   30.5841 C   0  0  0  0  0  0  0  0  0  0  0  0
   -0.2356    4.1892   31.2572 O   0  0  0  0  0  0  0  0  0  0  0  0
    0.9778    4.7517   29.2841 C   0  0  2  0  0  0  0  0  0  0  0  0
    1.0248    3.9011   28.0018 C   0  0  0  0  0  0  0  0  0  0  0  0
   -0.2809    3.2550   27.6538 C   0  0  0  0  0  0  0  0  0  0  0  0
   -0.8465    2.1886   28.3160 C   0  0  0  0  0  0  0  0  0  0  0  0
   -2.0055    1.8500   27.6972 N   0  0  0  0  0  0  0  0  0  0  0  0
   -2.2649    2.7532   26.7017 C   0  0  0  0  0  0  0  0  0  0  0  0
   -3.3785    2.8766   25.8763 C   0  0  0  0  0  0  0  0  0  0  0  0
   -3.3849    3.8944   24.9185 C   0  0  0  0  0  0  0  0  0  0  0  0
   -2.3181    4.7746   24.8058 C   0  0  0  0  0  0  0  0  0  0  0  0
   -1.2190    4.6571   25.6588 C   0  0  0  0  0  0  0  0  0  0  0  0
   -1.1891    3.6319   26.6254 C   0  0  0  0  0  0  0  0  0  0  0  0
    2.1917    5.5515   29.4862 N   0  0  0  0  0  0  0  0  0  0  0  0
    2.1883    6.8470   29.8899 C   0  0  0  0  0  0  0  0  0  0  0  0
    1.2509    7.5853   30.1211 O   0  0  0  0  0  0  0  0  0  0  0  0
    3.5886    7.2670   30.0169 C   0  0  0  0  0  0  0  0  0  0  0  0
    4.3570    6.2171   29.7294 C   0  0  0  0  0  0  0  0  0  0  0  0
    3.4655    5.0979   29.4226 C   0  0  0  0  0  0  0  0  0  0  0  0
    3.8470    3.9607   29.2054 O   0  0  0  0  0  0  0  0  0  0  0  0
    0.2227   -0.7087   29.6911 C   0  0  0  0  0  0  0  0  0  0  0  0
    0.9809   -0.6944   28.4123 C   0  0  0  0  0  0  0  0  0  0  0  0
   -0.9943   -1.2737   29.9864 C   0  0  0  0  0  0  0  0  0  0  0  0
   -1.9580   -2.1709   28.9485 Cl  0  0  0  0  0  0  0  0  0  0  0  0
  1  2  1  0
  2  3  2  0
  3  4  1  0
  4  5  1  0
  5  6  1  0
  6  7  1  0
  7  8  1  0
  8  9  2  0
  8 10  1  0
 10 11  1  6
 11 12  1  0
 12 13  2  0
 13 14  1  0
 14 15  1  0
 15 16  2  0
 16 17  1  0
 17 18  2  0
 18 19  1  0
 19 20  2  0
 10 21  1  0
 21 22  1  0
 22 23  2  0
 22 24  1  0
 24 25  2  0
 25 26  1  0
 26 27  2  0
  4 28  1  0
 28 29  1  0
 28 30  2  0
 30 31  1  0
 30  2  1  0
 20 12  1  0
 26 21  1  0
 20 15  1  0
M  END
>  <name>  (86) 
P61112

>  <HIPPO Compound ID>  (86) 
98726

>  <energy_score>  (86) 
-31.306496

>  <HIPPO Pose ID>  (86) 
61112

>  <inspiration_score>  (86) 
None

>  <ref_pdb>  (86) 
7go7-a

>  <inchikey>  (86) 
SOZREHVVHUSLDI-SFHVURJKSA-N

>  <alias>  (86) 
None

>  <distance_score>  (86) 
1.645414

>  <ref_mols>  (86) 
7goy-a,7gp2-a

>  <smiles>  (86) 
Cc1nn(CCNC(=O)[C@H](Cc2c[nH]c3ccccc23)N2C(=O)C=CC2=O)c(C)c1Cl

$$$$
P61113
     RDKit          3D

 31 33  0  0  0  0  0  0  0  0999 V2000
   -2.7031    5.9343   24.1232 C   0  0  0  0  0  0  0  0  0  0  0  0
   -2.4337    4.8427   25.1176 C   0  0  0  0  0  0  0  0  0  0  0  0
   -3.2162    3.6875   25.1295 C   0  0  0  0  0  0  0  0  0  0  0  0
   -2.9617    2.6283   26.0012 C   0  0  0  0  0  0  0  0  0  0  0  0
   -1.8727    2.7579   26.8564 C   0  0  0  0  0  0  0  0  0  0  0  0
   -1.3770    1.8787   27.7776 N   0  0  0  0  0  0  0  0  0  0  0  0
   -0.2767    2.4228   28.3736 C   0  0  0  0  0  0  0  0  0  0  0  0
   -0.0915    3.7169   27.9205 C   0  0  0  0  0  0  0  0  0  0  0  0
    0.9943    4.6881   28.3259 C   0  0  0  0  0  0  0  0  0  0  0  0
    0.9467    5.2340   29.7705 C   0  0  0  0  0  0  0  0  0  0  0  0
    0.6366    4.1570   30.7991 C   0  0  0  0  0  0  0  0  0  0  0  0
   -0.3025    4.1923   31.4923 O   0  0  0  0  0  0  0  0  0  0  0  0
    1.7191    3.0570   30.6270 N   0  0  0  0  0  0  0  0  0  0  0  0
    1.8056    1.8388   31.1582 N   0  0  0  0  0  0  0  0  0  0  0  0
    2.8155    0.6848   30.8822 C   0  0  0  0  0  0  0  0  0  0  0  0
    3.7681    0.6581   30.2051 O   0  0  0  0  0  0  0  0  0  0  0  0
    2.2610   -0.5329   31.6165 C   0  0  2  0  0  0  0  0  0  0  0  0
    3.1522   -1.7637   31.4930 C   0  0  0  0  0  0  0  0  0  0  0  0
    0.8944   -0.8052   31.1326 N   0  0  0  0  0  0  0  0  0  0  0  0
   -0.0978   -0.7619   32.0516 N   0  0  0  0  0  0  0  0  0  0  0  0
   -1.1984   -1.1689   31.3879 C   0  0  0  0  0  0  0  0  0  0  0  0
   -2.5113   -1.4257   32.0615 C   0  0  0  0  0  0  0  0  0  0  0  0
   -2.8845   -2.7297   31.9436 F   0  0  0  0  0  0  0  0  0  0  0  0
   -3.5082   -0.6811   31.5123 F   0  0  0  0  0  0  0  0  0  0  0  0
   -2.5195   -1.1231   33.3856 F   0  0  0  0  0  0  0  0  0  0  0  0
   -0.9151   -1.3069   30.0121 C   0  0  0  0  0  0  0  0  0  0  0  0
   -1.9752   -1.7405   28.7763 Cl  0  0  0  0  0  0  0  0  0  0  0  0
    0.4199   -1.0112   29.8552 C   0  0  0  0  0  0  0  0  0  0  0  0
    1.2210   -0.9566   28.6001 C   0  0  0  0  0  0  0  0  0  0  0  0
   -1.0815    3.9096   26.9065 C   0  0  0  0  0  0  0  0  0  0  0  0
   -1.3665    4.9625   26.0152 C   0  0  0  0  0  0  0  0  0  0  0  0
  1  2  1  0
  2  3  2  0
  3  4  1  0
  4  5  2  0
  5  6  1  0
  6  7  1  0
  7  8  2  0
  8  9  1  0
  9 10  1  0
 10 11  1  0
 11 12  2  0
 11 13  1  0
 13 14  1  0
 14 15  1  0
 15 16  2  0
 15 17  1  0
 17 18  1  6
 17 19  1  0
 19 20  1  0
 20 21  2  0
 21 22  1  0
 22 23  1  0
 22 24  1  0
 22 25  1  0
 21 26  1  0
 26 27  1  0
 26 28  2  0
 28 29  1  0
  8 30  1  0
 30 31  2  0
 31  2  1  0
 30  5  1  0
 28 19  1  0
M  END
>  <name>  (87) 
P61113

>  <HIPPO Compound ID>  (87) 
98743

>  <energy_score>  (87) 
-9.58404

>  <HIPPO Pose ID>  (87) 
61113

>  <inspiration_score>  (87) 
None

>  <ref_pdb>  (87) 
7go7-a

>  <inchikey>  (87) 
DFVAGUXMVZZJTG-LBPRGKRZSA-N

>  <alias>  (87) 
None

>  <distance_score>  (87) 
1.253388

>  <ref_mols>  (87) 
7goy-a,7gp2-a

>  <smiles>  (87) 
Cc1ccc2[nH]cc(CCC(=O)NNC(=O)[C@H](C)n3nc(C(F)(F)F)c(Cl)c3C)c2c1

$$$$
P61114
     RDKit          3D

 31 33  0  0  0  0  0  0  0  0999 V2000
    1.2098   -1.4302   27.8631 C   0  0  0  0  0  0  0  0  0  0  0  0
    0.3962   -1.4639   29.0924 C   0  0  0  0  0  0  0  0  0  0  0  0
    0.3426   -0.3670   29.8459 N   0  0  0  0  0  0  0  0  0  0  0  0
   -0.5667   -0.6602   30.7828 N   0  0  0  0  0  0  0  0  0  0  0  0
   -1.1395    0.4404   31.5184 C   0  0  1  0  0  0  0  0  0  0  0  0
   -0.3205    0.7476   32.7690 C   0  0  0  0  0  0  0  0  0  0  0  0
   -1.2588    1.6481   30.5887 C   0  0  0  0  0  0  0  0  0  0  0  0
   -0.8015    2.6891   30.8874 O   0  0  0  0  0  0  0  0  0  0  0  0
   -2.1364    1.2371   29.3414 N   0  0  0  0  0  0  0  0  0  0  0  0
   -2.5115    1.9584   28.2507 N   0  0  0  0  0  0  0  0  0  0  0  0
   -2.7513    1.5134   26.7798 C   0  0  0  0  0  0  0  0  0  0  0  0
   -2.7380    0.4490   26.3001 O   0  0  0  0  0  0  0  0  0  0  0  0
   -3.1098    2.7833   25.9891 C   0  0  0  0  0  0  0  0  0  0  0  0
   -1.9291    3.6734   25.5490 C   0  0  1  0  0  0  0  0  0  0  0  0
   -0.7697    3.5039   26.4761 C   0  0  0  0  0  0  0  0  0  0  0  0
   -0.0217    2.3727   26.7409 C   0  0  0  0  0  0  0  0  0  0  0  0
    0.7437    2.6113   27.8472 N   0  0  0  0  0  0  0  0  0  0  0  0
    0.6230    3.9289   28.2108 C   0  0  0  0  0  0  0  0  0  0  0  0
    1.2404    4.6502   29.2307 C   0  0  0  0  0  0  0  0  0  0  0  0
    2.5139    3.8512   30.3778 Br  0  0  0  0  0  0  0  0  0  0  0  0
    0.9220    6.0018   29.3808 C   0  0  0  0  0  0  0  0  0  0  0  0
   -0.0050    6.6071   28.5375 C   0  0  0  0  0  0  0  0  0  0  0  0
   -0.6407    5.8723   27.5299 C   0  0  0  0  0  0  0  0  0  0  0  0
   -0.3089    4.5156   27.3576 C   0  0  0  0  0  0  0  0  0  0  0  0
   -1.5552    3.6309   24.0439 C   0  0  0  0  0  0  0  0  0  0  0  0
   -2.6759    4.2586   23.2012 C   0  0  0  0  0  0  0  0  0  0  0  0
   -0.2562    4.3899   23.7240 C   0  0  0  0  0  0  0  0  0  0  0  0
   -1.0118   -1.9519   30.7480 C   0  0  0  0  0  0  0  0  0  0  0  0
   -1.9809   -2.5009   31.7260 C   0  0  0  0  0  0  0  0  0  0  0  0
   -0.3753   -2.5052   29.6541 C   0  0  0  0  0  0  0  0  0  0  0  0
   -0.4538   -4.0940   29.0754 Cl  0  0  0  0  0  0  0  0  0  0  0  0
  1  2  1  0
  2  3  2  0
  3  4  1  0
  4  5  1  0
  5  6  1  1
  5  7  1  0
  7  8  2  0
  7  9  1  0
  9 10  1  0
 10 11  1  0
 11 12  2  0
 11 13  1  0
 14 13  1  6
 14 15  1  0
 15 16  2  0
 16 17  1  0
 17 18  1  0
 18 19  2  0
 19 20  1  0
 19 21  1  0
 21 22  2  0
 22 23  1  0
 23 24  2  0
 14 25  1  0
 25 26  1  0
 25 27  1  0
  4 28  1  0
 28 29  1  0
 28 30  2  0
 30 31  1  0
 30  2  1  0
 24 15  1  0
 24 18  1  0
M  END
>  <name>  (88) 
P61114

>  <HIPPO Compound ID>  (88) 
98754

>  <energy_score>  (88) 
-20.523137

>  <HIPPO Pose ID>  (88) 
61114

>  <inspiration_score>  (88) 
None

>  <ref_pdb>  (88) 
7go7-a

>  <inchikey>  (88) 
PVJFHIQHTOXBEO-GOEBONIOSA-N

>  <alias>  (88) 
None

>  <distance_score>  (88) 
1.96418

>  <ref_mols>  (88) 
7goy-a,7gp2-a

>  <smiles>  (88) 
Cc1nn([C@@H](C)C(=O)NNC(=O)C[C@@H](c2c[nH]c3c(Br)cccc23)C(C)C)c(C)c1Cl

$$$$
P61115
     RDKit          3D

 31 33  0  0  0  0  0  0  0  0999 V2000
    2.9666    0.2855   31.1582 C   0  0  0  0  0  0  0  0  0  0  0  0
    1.9975    1.4559   31.2681 C   0  0  0  0  0  0  0  0  0  0  0  0
    0.8519    1.4032   30.2338 C   0  0  2  0  0  0  0  0  0  0  0  0
    0.0382    2.6976   30.2908 C   0  0  0  0  0  0  0  0  0  0  0  0
   -0.8384    2.9505   29.1665 N   0  0  0  0  0  0  0  0  0  0  0  0
   -1.9566    2.0634   28.5338 C   0  0  0  0  0  0  0  0  0  0  0  0
   -2.2825    0.9665   28.7781 O   0  0  0  0  0  0  0  0  0  0  0  0
   -2.7277    2.8968   27.4934 C   0  0  0  0  0  0  0  0  0  0  0  0
   -2.2005    2.6560   26.0947 C   0  0  2  0  0  0  0  0  0  0  0  0
   -2.3571    1.2401   25.8071 O   0  0  0  0  0  0  0  0  0  0  0  0
   -0.7470    3.0101   26.1490 C   0  0  0  0  0  0  0  0  0  0  0  0
    0.2449    2.0859   26.4125 C   0  0  0  0  0  0  0  0  0  0  0  0
    1.3997    2.7351   26.6945 N   0  0  0  0  0  0  0  0  0  0  0  0
    1.1500    4.0788   26.7815 C   0  0  0  0  0  0  0  0  0  0  0  0
    1.9920    5.1020   27.2148 C   0  0  0  0  0  0  0  0  0  0  0  0
    1.5016    6.4065   27.2262 C   0  0  0  0  0  0  0  0  0  0  0  0
    0.1976    6.6690   26.8360 C   0  0  0  0  0  0  0  0  0  0  0  0
   -0.6469    5.6308   26.4221 C   0  0  0  0  0  0  0  0  0  0  0  0
   -0.1647    4.3038   26.3673 C   0  0  0  0  0  0  0  0  0  0  0  0
   -3.0477    3.4286   25.0524 C   0  0  0  0  0  0  0  0  0  0  0  0
   -2.6604    3.0797   23.7967 F   0  0  0  0  0  0  0  0  0  0  0  0
   -4.3595    3.1228   25.1966 F   0  0  0  0  0  0  0  0  0  0  0  0
   -2.9669    4.7649   25.1397 F   0  0  0  0  0  0  0  0  0  0  0  0
    0.0060    0.2340   30.4375 N   0  0  0  0  0  0  0  0  0  0  0  0
   -0.7809    0.1606   31.5487 N   0  0  0  0  0  0  0  0  0  0  0  0
   -1.3452   -1.0558   31.4587 C   0  0  0  0  0  0  0  0  0  0  0  0
   -2.3302   -1.5090   32.4711 C   0  0  0  0  0  0  0  0  0  0  0  0
   -0.8438   -1.7819   30.3553 C   0  0  0  0  0  0  0  0  0  0  0  0
   -1.1160   -3.4015   29.9916 Cl  0  0  0  0  0  0  0  0  0  0  0  0
   -0.0491   -0.9007   29.6859 C   0  0  0  0  0  0  0  0  0  0  0  0
    0.8071   -1.0717   28.2305 Cl  0  0  0  0  0  0  0  0  0  0  0  0
  1  2  1  0
  3  2  1  1
  3  4  1  0
  4  5  1  0
  5  6  1  0
  6  7  2  0
  6  8  1  0
  8  9  1  0
  9 10  1  6
  9 11  1  0
 11 12  2  0
 12 13  1  0
 13 14  1  0
 14 15  2  0
 15 16  1  0
 16 17  2  0
 17 18  1  0
 18 19  2  0
  9 20  1  0
 20 21  1  0
 20 22  1  0
 20 23  1  0
  3 24  1  0
 24 25  1  0
 25 26  2  0
 26 27  1  0
 26 28  1  0
 28 29  1  0
 28 30  2  0
 30 31  1  0
 19 11  1  0
 30 24  1  0
 19 14  1  0
M  END
>  <name>  (89) 
P61115

>  <HIPPO Compound ID>  (89) 
98801

>  <energy_score>  (89) 
-38.727244

>  <HIPPO Pose ID>  (89) 
61115

>  <inspiration_score>  (89) 
None

>  <ref_pdb>  (89) 
7go7-a

>  <inchikey>  (89) 
BQINXBSAORGPPN-BLVKFPJESA-N

>  <alias>  (89) 
None

>  <distance_score>  (89) 
1.915522

>  <ref_mols>  (89) 
7goy-a,7gp2-a

>  <smiles>  (89) 
CC[C@H](CNC(=O)C[C@](O)(c1c[nH]c2ccccc12)C(F)(F)F)n1nc(C)c(Cl)c1Cl

$$$$
P61118
     RDKit          3D

 31 33  0  0  0  0  0  0  0  0999 V2000
   -1.4920   -1.6302   28.5957 C   0  0  0  0  0  0  0  0  0  0  0  0
   -1.1497   -0.6075   29.6666 C   0  0  0  0  0  0  0  0  0  0  0  0
   -0.1948    0.4938   29.1630 C   0  0  2  0  0  0  0  0  0  0  0  0
    0.3972    1.2257   30.3897 C   0  0  0  0  0  0  0  0  0  0  0  0
   -0.0917    2.2452   30.7860 O   0  0  0  0  0  0  0  0  0  0  0  0
    1.5184    0.4548   30.8954 N   0  0  0  0  0  0  0  0  0  0  0  0
    2.2709    0.6146   31.9999 N   0  0  0  0  0  0  0  0  0  0  0  0
    3.0473   -0.3326   32.7572 C   0  0  0  0  0  0  0  0  0  0  0  0
    3.2859   -1.4879   32.5538 O   0  0  0  0  0  0  0  0  0  0  0  0
    3.6601    0.3646   33.9675 C   0  0  0  0  0  0  0  0  0  0  0  0
    4.1408   -0.6082   35.0777 C   0  0  1  0  0  0  0  0  0  0  0  0
    5.0820   -1.5460   34.4982 O   0  0  0  0  0  0  0  0  0  0  0  0
    4.8716    0.2276   36.1378 C   0  0  0  0  0  0  0  0  0  0  0  0
    4.3574    0.7099   37.3313 C   0  0  0  0  0  0  0  0  0  0  0  0
    5.3300    1.4256   37.9758 N   0  0  0  0  0  0  0  0  0  0  0  0
    6.4737    1.4615   37.2180 C   0  0  0  0  0  0  0  0  0  0  0  0
    7.6987    2.0915   37.4713 C   0  0  0  0  0  0  0  0  0  0  0  0
    8.7085    1.9571   36.5152 C   0  0  0  0  0  0  0  0  0  0  0  0
    8.4993    1.2187   35.3547 C   0  0  0  0  0  0  0  0  0  0  0  0
    7.2683    0.5954   35.1192 C   0  0  0  0  0  0  0  0  0  0  0  0
    6.2269    0.7147   36.0654 C   0  0  0  0  0  0  0  0  0  0  0  0
    2.9170   -1.3725   35.6847 C   0  0  0  0  0  0  0  0  0  0  0  0
    1.9283   -0.5158   36.0486 F   0  0  0  0  0  0  0  0  0  0  0  0
    2.3621   -2.2364   34.8022 F   0  0  0  0  0  0  0  0  0  0  0  0
    3.2457   -2.1011   36.7767 F   0  0  0  0  0  0  0  0  0  0  0  0
   -0.7719    1.4486   28.2201 N   0  0  0  0  0  0  0  0  0  0  0  0
   -0.0694    2.2267   27.3373 C   0  0  0  0  0  0  0  0  0  0  0  0
   -1.0061    2.9504   26.6419 C   0  0  0  0  0  0  0  0  0  0  0  0
   -0.7496    4.0806   25.4128 Cl  0  0  0  0  0  0  0  0  0  0  0  0
   -2.2438    2.5332   27.1550 C   0  0  0  0  0  0  0  0  0  0  0  0
   -2.1069    1.5806   28.0849 N   0  0  0  0  0  0  0  0  0  0  0  0
  1  2  1  0
  3  2  1  1
  3  4  1  0
  4  5  2  0
  4  6  1  0
  6  7  1  0
  7  8  1  0
  8  9  2  0
  8 10  1  0
 10 11  1  0
 11 12  1  6
 11 13  1  0
 13 14  2  0
 14 15  1  0
 15 16  1  0
 16 17  2  0
 17 18  1  0
 18 19  2  0
 19 20  1  0
 20 21  2  0
 11 22  1  0
 22 23  1  0
 22 24  1  0
 22 25  1  0
  3 26  1  0
 26 27  1  0
 27 28  2  0
 28 29  1  0
 28 30  1  0
 30 31  2  0
 21 13  1  0
 31 26  1  0
 21 16  1  0
M  END
>  <name>  (90) 
P61118

>  <HIPPO Compound ID>  (90) 
98802

>  <energy_score>  (90) 
-27.498771

>  <HIPPO Pose ID>  (90) 
61118

>  <inspiration_score>  (90) 
None

>  <ref_pdb>  (90) 
7go7-a

>  <inchikey>  (90) 
OGSQTXHSWHZQKL-CRAIPNDOSA-N

>  <alias>  (90) 
None

>  <distance_score>  (90) 
1.233641

>  <ref_mols>  (90) 
7goy-a,7gp2-a

>  <smiles>  (90) 
CC[C@H](C(=O)NNC(=O)C[C@@](O)(c1c[nH]c2ccccc12)C(F)(F)F)n1cc(Cl)cn1

$$$$
P61121
     RDKit          3D

 31 33  0  0  0  0  0  0  0  0999 V2000
   -2.3885    1.4450   28.1577 O   0  0  0  0  0  0  0  0  0  0  0  0
   -2.0239    2.5510   28.0367 C   0  0  0  0  0  0  0  0  0  0  0  0
   -2.6903    3.5225   27.0343 C   0  0  0  0  0  0  0  0  0  0  0  0
   -1.9657    3.6597   25.6777 C   0  0  2  0  0  0  0  0  0  0  0  0
   -2.4153    2.5443   24.8277 O   0  0  0  0  0  0  0  0  0  0  0  0
   -0.4796    3.5200   25.9097 C   0  0  0  0  0  0  0  0  0  0  0  0
    0.1030    2.2941   26.1838 C   0  0  0  0  0  0  0  0  0  0  0  0
    1.4040    2.4720   26.5183 N   0  0  0  0  0  0  0  0  0  0  0  0
    1.6856    3.8109   26.5643 C   0  0  0  0  0  0  0  0  0  0  0  0
    2.8815    4.4471   26.9234 C   0  0  0  0  0  0  0  0  0  0  0  0
    2.9241    5.8392   26.8667 C   0  0  0  0  0  0  0  0  0  0  0  0
    1.8121    6.5634   26.4584 C   0  0  0  0  0  0  0  0  0  0  0  0
    0.6245    5.9115   26.0993 C   0  0  0  0  0  0  0  0  0  0  0  0
    0.5414    4.5021   26.1470 C   0  0  0  0  0  0  0  0  0  0  0  0
   -2.4171    4.9763   25.0011 C   0  0  0  0  0  0  0  0  0  0  0  0
   -2.3177    6.0422   25.8211 F   0  0  0  0  0  0  0  0  0  0  0  0
   -1.7196    5.2437   23.8751 F   0  0  0  0  0  0  0  0  0  0  0  0
   -3.7212    4.8571   24.6356 F   0  0  0  0  0  0  0  0  0  0  0  0
   -0.9079    3.3407   28.8029 N   0  0  0  0  0  0  0  0  0  0  0  0
   -0.0862    2.9509   29.9352 C   0  0  0  0  0  0  0  0  0  0  0  0
    0.6087    1.6019   29.8686 C   0  0  0  0  0  0  0  0  0  0  0  0
   -0.2425    0.4433   30.0475 N   0  0  0  0  0  0  0  0  0  0  0  0
   -0.1974   -0.6746   29.2719 C   0  0  0  0  0  0  0  0  0  0  0  0
   -0.9097   -1.6285   29.9459 C   0  0  0  0  0  0  0  0  0  0  0  0
   -1.0266   -3.2536   29.5082 Cl  0  0  0  0  0  0  0  0  0  0  0  0
   -1.4282   -0.9884   31.0981 C   0  0  0  0  0  0  0  0  0  0  0  0
   -2.2771   -1.6245   32.1631 C   0  0  0  0  0  0  0  0  0  0  0  0
   -3.0780   -0.7328   32.8096 F   0  0  0  0  0  0  0  0  0  0  0  0
   -3.1055   -2.5930   31.6704 F   0  0  0  0  0  0  0  0  0  0  0  0
   -1.5087   -2.2225   33.1128 F   0  0  0  0  0  0  0  0  0  0  0  0
   -0.9726    0.2872   31.1763 N   0  0  0  0  0  0  0  0  0  0  0  0
  1  2  2  0
  2  3  1  0
  3  4  1  0
  4  5  1  6
  4  6  1  0
  6  7  2  0
  7  8  1  0
  8  9  1  0
  9 10  2  0
 10 11  1  0
 11 12  2  0
 12 13  1  0
 13 14  2  0
  4 15  1  0
 15 16  1  0
 15 17  1  0
 15 18  1  0
  2 19  1  0
 19 20  1  0
 20 21  1  0
 21 22  1  0
 22 23  1  0
 23 24  2  0
 24 25  1  0
 24 26  1  0
 26 27  1  0
 27 28  1  0
 27 29  1  0
 27 30  1  0
 26 31  2  0
 14  6  1  0
 31 22  1  0
 14  9  1  0
M  END
>  <name>  (91) 
P61121

>  <HIPPO Compound ID>  (91) 
98804

>  <energy_score>  (91) 
-10.275316

>  <HIPPO Pose ID>  (91) 
61121

>  <inspiration_score>  (91) 
None

>  <ref_pdb>  (91) 
7go7-a

>  <inchikey>  (91) 
QQENYAXFNDCJAQ-INIZCTEOSA-N

>  <alias>  (91) 
None

>  <distance_score>  (91) 
1.598596

>  <ref_mols>  (91) 
7goy-a,7gp2-a

>  <smiles>  (91) 
O=C(C[C@](O)(c1c[nH]c2ccccc12)C(F)(F)F)NCCn1cc(Cl)c(C(F)(F)F)n1

$$$$
P61122
     RDKit          3D

 31 33  0  0  0  0  0  0  0  0999 V2000
    0.8503   -0.4193   28.4145 C   0  0  0  0  0  0  0  0  0  0  0  0
    0.1863   -0.6023   29.7349 C   0  0  0  0  0  0  0  0  0  0  0  0
   -1.0210   -1.2167   29.9875 C   0  0  0  0  0  0  0  0  0  0  0  0
   -1.9956   -1.9869   28.8543 Cl  0  0  0  0  0  0  0  0  0  0  0  0
   -1.2737   -1.0776   31.3639 C   0  0  0  0  0  0  0  0  0  0  0  0
   -2.4797   -1.5635   32.1076 C   0  0  0  0  0  0  0  0  0  0  0  0
   -2.5015   -1.2021   33.4163 F   0  0  0  0  0  0  0  0  0  0  0  0
   -2.5881   -2.9196   32.0559 F   0  0  0  0  0  0  0  0  0  0  0  0
   -3.6304   -1.0694   31.5746 F   0  0  0  0  0  0  0  0  0  0  0  0
   -0.2515   -0.4380   31.9567 N   0  0  0  0  0  0  0  0  0  0  0  0
    0.6540   -0.2130   30.9724 N   0  0  0  0  0  0  0  0  0  0  0  0
    1.9299    0.3862   31.3876 C   0  0  1  0  0  0  0  0  0  0  0  0
    3.1818   -0.4061   31.0288 C   0  0  0  0  0  0  0  0  0  0  0  0
    1.9038    1.8868   31.0773 C   0  0  0  0  0  0  0  0  0  0  0  0
    1.4739    2.6487   31.8529 O   0  0  0  0  0  0  0  0  0  0  0  0
    2.4131    2.1071   29.6277 N   0  0  0  0  0  0  0  0  0  0  0  0
    2.4090    3.2003   28.8665 N   0  0  0  0  0  0  0  0  0  0  0  0
    2.4245    3.3523   27.3241 C   0  0  0  0  0  0  0  0  0  0  0  0
    2.5213    2.5463   26.4859 O   0  0  0  0  0  0  0  0  0  0  0  0
    2.1720    4.8218   27.0311 C   0  0  0  0  0  0  0  0  0  0  0  0
    0.7400    5.3050   27.3788 C   0  0  2  0  0  0  0  0  0  0  0  0
    0.6520    6.0254   28.7321 C   0  0  0  0  0  0  0  0  0  0  0  0
   -0.3588    4.2660   27.2297 C   0  0  0  0  0  0  0  0  0  0  0  0
   -0.6590    3.2051   28.0683 C   0  0  0  0  0  0  0  0  0  0  0  0
   -1.7516    2.5413   27.5755 N   0  0  0  0  0  0  0  0  0  0  0  0
   -2.2424    3.2065   26.4801 C   0  0  0  0  0  0  0  0  0  0  0  0
   -3.4053    2.9958   25.7375 C   0  0  0  0  0  0  0  0  0  0  0  0
   -3.6642    3.8723   24.6783 C   0  0  0  0  0  0  0  0  0  0  0  0
   -2.7900    4.8987   24.3540 C   0  0  0  0  0  0  0  0  0  0  0  0
   -1.6425    5.1019   25.1170 C   0  0  0  0  0  0  0  0  0  0  0  0
   -1.3665    4.2581   26.2116 C   0  0  0  0  0  0  0  0  0  0  0  0
  1  2  1  0
  2  3  2  0
  3  4  1  0
  3  5  1  0
  5  6  1  0
  6  7  1  0
  6  8  1  0
  6  9  1  0
  5 10  2  0
 10 11  1  0
 11 12  1  0
 12 13  1  6
 12 14  1  0
 14 15  2  0
 14 16  1  0
 16 17  1  0
 17 18  1  0
 18 19  2  0
 18 20  1  0
 20 21  1  0
 21 22  1  1
 21 23  1  0
 23 24  2  0
 24 25  1  0
 25 26  1  0
 26 27  2  0
 27 28  1  0
 28 29  2  0
 29 30  1  0
 30 31  2  0
 11  2  1  0
 31 23  1  0
 31 26  1  0
M  END
>  <name>  (92) 
P61122

>  <HIPPO Compound ID>  (92) 
98818

>  <energy_score>  (92) 
-8.500778

>  <HIPPO Pose ID>  (92) 
61122

>  <inspiration_score>  (92) 
None

>  <ref_pdb>  (92) 
7go7-a

>  <inchikey>  (92) 
OXVRCARNUATFJL-JQWIXIFHSA-N

>  <alias>  (92) 
None

>  <distance_score>  (92) 
1.24638

>  <ref_mols>  (92) 
7goy-a,7gp2-a

>  <smiles>  (92) 
Cc1c(Cl)c(C(F)(F)F)nn1[C@@H](C)C(=O)NNC(=O)C[C@H](C)c1c[nH]c2ccccc12

$$$$
P61124
     RDKit          3D

 31 34  0  0  0  0  0  0  0  0999 V2000
   -2.3145   -2.2385   32.3517 C   0  0  0  0  0  0  0  0  0  0  0  0
   -1.0653   -1.6839   31.7989 C   0  0  0  0  0  0  0  0  0  0  0  0
   -0.4045   -0.7318   32.4734 N   0  0  0  0  0  0  0  0  0  0  0  0
    0.5511   -0.3467   31.6127 N   0  0  0  0  0  0  0  0  0  0  0  0
    1.1759    0.9514   31.7923 C   0  0  0  0  0  0  0  0  0  0  0  0
    0.1746    2.0794   31.5176 C   0  0  0  0  0  0  0  0  0  0  0  0
   -0.5922    1.8061   30.3254 N   0  0  0  0  0  0  0  0  0  0  0  0
   -1.9519    1.0906   30.1477 C   0  0  0  0  0  0  0  0  0  0  0  0
   -2.7008    0.6792   30.9445 O   0  0  0  0  0  0  0  0  0  0  0  0
   -2.2437    0.9003   28.6690 C   0  0  0  0  0  0  0  0  0  0  0  0
   -1.1451    0.5869   27.6710 C   0  0  0  0  0  0  0  0  0  0  0  0
   -0.5698    1.8388   27.1109 C   0  0  0  0  0  0  0  0  0  0  0  0
    0.7420    2.2814   27.2449 C   0  0  0  0  0  0  0  0  0  0  0  0
    1.9710    1.6940   27.7982 C   0  0  0  0  0  0  0  0  0  0  0  0
    2.8301    2.4747   28.5935 C   0  0  0  0  0  0  0  0  0  0  0  0
    4.0364    1.9538   29.0701 C   0  0  0  0  0  0  0  0  0  0  0  0
    4.3939    0.6506   28.7515 C   0  0  0  0  0  0  0  0  0  0  0  0
    5.5483    0.1544   29.2138 F   0  0  0  0  0  0  0  0  0  0  0  0
    3.5649   -0.1409   27.9703 C   0  0  0  0  0  0  0  0  0  0  0  0
    2.3518    0.3781   27.5045 C   0  0  0  0  0  0  0  0  0  0  0  0
    0.7543    3.5668   26.7663 N   0  0  0  0  0  0  0  0  0  0  0  0
   -0.4653    3.9338   26.2823 C   0  0  0  0  0  0  0  0  0  0  0  0
   -0.8756    5.1365   25.7183 C   0  0  0  0  0  0  0  0  0  0  0  0
   -0.0295    6.1707   25.6211 F   0  0  0  0  0  0  0  0  0  0  0  0
   -2.1663    5.2379   25.2116 C   0  0  0  0  0  0  0  0  0  0  0  0
   -3.0343    4.1553   25.2943 C   0  0  0  0  0  0  0  0  0  0  0  0
   -2.6276    2.9674   25.9113 C   0  0  0  0  0  0  0  0  0  0  0  0
   -1.3106    2.8465   26.4064 C   0  0  0  0  0  0  0  0  0  0  0  0
    0.6551   -1.1570   30.5200 C   0  0  0  0  0  0  0  0  0  0  0  0
   -0.4176   -2.0074   30.5855 C   0  0  0  0  0  0  0  0  0  0  0  0
   -0.8659   -3.1664   29.4435 Cl  0  0  0  0  0  0  0  0  0  0  0  0
  1  2  1  0
  2  3  2  0
  3  4  1  0
  4  5  1  0
  5  6  1  0
  6  7  1  0
  7  8  1  0
  8  9  2  0
  8 10  1  0
 10 11  1  0
 11 12  1  0
 12 13  2  0
 13 14  1  0
 14 15  2  0
 15 16  1  0
 16 17  2  0
 17 18  1  0
 17 19  1  0
 19 20  2  0
 13 21  1  0
 21 22  1  0
 22 23  2  0
 23 24  1  0
 23 25  1  0
 25 26  2  0
 26 27  1  0
 27 28  2  0
  4 29  1  0
 29 30  2  0
 30 31  1  0
 30  2  1  0
 28 12  1  0
 20 14  1  0
 28 22  1  0
M  END
>  <name>  (93) 
P61124

>  <HIPPO Compound ID>  (93) 
98821

>  <energy_score>  (93) 
-8.091781

>  <HIPPO Pose ID>  (93) 
61124

>  <inspiration_score>  (93) 
None

>  <ref_pdb>  (93) 
7go7-a

>  <inchikey>  (93) 
SLDLXFLOVBLNAZ-UHFFFAOYSA-N

>  <alias>  (93) 
None

>  <distance_score>  (93) 
1.979796

>  <ref_mols>  (93) 
7goy-a,7gp2-a

>  <smiles>  (93) 
Cc1nn(CCNC(=O)CCc2c(-c3ccc(F)cc3)[nH]c3c(F)cccc23)cc1Cl

$$$$
P61126
     RDKit          3D

 31 33  0  0  0  0  0  0  0  0999 V2000
   -1.6929    6.1934   25.4693 C   0  0  0  0  0  0  0  0  0  0  0  0
   -1.9333    4.7514   25.8214 C   0  0  0  0  0  0  0  0  0  0  0  0
   -3.1746    4.1830   25.5029 C   0  0  0  0  0  0  0  0  0  0  0  0
   -3.4862    2.8668   25.8224 C   0  0  0  0  0  0  0  0  0  0  0  0
   -2.5471    2.0183   26.3897 C   0  0  0  0  0  0  0  0  0  0  0  0
   -1.2994    2.5661   26.6655 C   0  0  0  0  0  0  0  0  0  0  0  0
   -0.1813    1.9532   27.1616 N   0  0  0  0  0  0  0  0  0  0  0  0
    0.8232    2.8633   27.3002 C   0  0  0  0  0  0  0  0  0  0  0  0
    0.3331    4.1170   26.9797 C   0  0  0  0  0  0  0  0  0  0  0  0
    1.0655    5.4180   27.2016 C   0  0  0  0  0  0  0  0  0  0  0  0
    0.7103    6.0987   28.5412 C   0  0  0  0  0  0  0  0  0  0  0  0
    1.3654    5.3245   29.6789 C   0  0  0  0  0  0  0  0  0  0  0  0
    2.3974    5.6164   30.1428 O   0  0  0  0  0  0  0  0  0  0  0  0
    0.4458    4.1010   29.9563 N   0  0  0  0  0  0  0  0  0  0  0  0
    0.6407    3.0237   30.7307 N   0  0  0  0  0  0  0  0  0  0  0  0
    1.8140    1.9968   30.7585 C   0  0  0  0  0  0  0  0  0  0  0  0
    2.8221    1.9810   30.1637 O   0  0  0  0  0  0  0  0  0  0  0  0
    1.4299    0.8402   31.6595 C   0  0  1  0  0  0  0  0  0  0  0  0
    1.3374    1.2755   33.1236 C   0  0  0  0  0  0  0  0  0  0  0  0
    0.2491    0.1552   31.1232 N   0  0  0  0  0  0  0  0  0  0  0  0
   -0.8792    0.1211   31.8684 N   0  0  0  0  0  0  0  0  0  0  0  0
   -1.5566   -0.9413   31.3837 C   0  0  0  0  0  0  0  0  0  0  0  0
   -2.6553   -1.6193   32.1393 C   0  0  0  0  0  0  0  0  0  0  0  0
   -3.6703   -2.0481   31.3415 F   0  0  0  0  0  0  0  0  0  0  0  0
   -3.2205   -0.8277   33.0882 F   0  0  0  0  0  0  0  0  0  0  0  0
   -2.1743   -2.7262   32.7598 F   0  0  0  0  0  0  0  0  0  0  0  0
   -0.9869   -1.3733   30.1692 C   0  0  0  0  0  0  0  0  0  0  0  0
   -1.4879   -2.6646   29.2085 Cl  0  0  0  0  0  0  0  0  0  0  0  0
    0.1467   -0.6149   29.9844 C   0  0  0  0  0  0  0  0  0  0  0  0
    1.1638   -0.7055   28.9038 C   0  0  0  0  0  0  0  0  0  0  0  0
   -0.9796    3.9129   26.4457 C   0  0  0  0  0  0  0  0  0  0  0  0
  1  2  1  0
  2  3  2  0
  3  4  1  0
  4  5  2  0
  5  6  1  0
  6  7  1  0
  7  8  1  0
  8  9  2  0
  9 10  1  0
 10 11  1  0
 11 12  1  0
 12 13  2  0
 12 14  1  0
 14 15  1  0
 15 16  1  0
 16 17  2  0
 16 18  1  0
 18 19  1  1
 18 20  1  0
 20 21  1  0
 21 22  2  0
 22 23  1  0
 23 24  1  0
 23 25  1  0
 23 26  1  0
 22 27  1  0
 27 28  1  0
 27 29  2  0
 29 30  1  0
  9 31  1  0
 31  2  1  0
 31  6  2  0
 29 20  1  0
M  END
>  <name>  (94) 
P61126

>  <HIPPO Compound ID>  (94) 
98828

>  <energy_score>  (94) 
-5.313289

>  <HIPPO Pose ID>  (94) 
61126

>  <inspiration_score>  (94) 
None

>  <ref_pdb>  (94) 
7go7-a

>  <inchikey>  (94) 
WMHGXFNULUEJJE-GFCCVEGCSA-N

>  <alias>  (94) 
None

>  <distance_score>  (94) 
1.193114

>  <ref_mols>  (94) 
7goy-a,7gp2-a

>  <smiles>  (94) 
Cc1cccc2[nH]cc(CCC(=O)NNC(=O)[C@@H](C)n3nc(C(F)(F)F)c(Cl)c3C)c12

$$$$
P61127
     RDKit          3D

 32 35  0  0  0  0  0  0  0  0999 V2000
   -1.3358    0.6096   27.9277 C   0  0  0  0  0  0  0  0  0  0  0  0
   -1.0188    1.8699   27.2953 N   0  0  0  0  0  0  0  0  0  0  0  0
    0.2082    2.4591   27.3246 C   0  0  0  0  0  0  0  0  0  0  0  0
    0.0955    3.7429   26.8239 C   0  0  0  0  0  0  0  0  0  0  0  0
    1.1387    4.8298   26.8762 C   0  0  0  0  0  0  0  0  0  0  0  0
    1.0627    5.6907   28.1547 C   0  0  0  0  0  0  0  0  0  0  0  0
    1.7514    4.9570   29.2996 C   0  0  0  0  0  0  0  0  0  0  0  0
    2.8501    5.1729   29.6325 O   0  0  0  0  0  0  0  0  0  0  0  0
    0.7458    3.8758   29.7856 N   0  0  0  0  0  0  0  0  0  0  0  0
    0.9087    2.8592   30.6452 N   0  0  0  0  0  0  0  0  0  0  0  0
    2.0527    1.8055   30.7608 C   0  0  0  0  0  0  0  0  0  0  0  0
    3.0604    1.7138   30.1741 O   0  0  0  0  0  0  0  0  0  0  0  0
    1.6085    0.7626   31.7493 C   0  0  0  0  0  0  0  0  0  0  0  0
    0.5265   -0.0401   31.1973 N   0  0  0  0  0  0  0  0  0  0  0  0
   -0.6995    0.0585   31.7666 N   0  0  0  0  0  0  0  0  0  0  0  0
   -1.3198   -1.0827   31.3883 C   0  0  0  0  0  0  0  0  0  0  0  0
   -2.5451   -1.6138   32.0612 C   0  0  0  0  0  0  0  0  0  0  0  0
   -3.4797   -2.0654   31.1830 F   0  0  0  0  0  0  0  0  0  0  0  0
   -3.1662   -0.7065   32.8595 F   0  0  0  0  0  0  0  0  0  0  0  0
   -2.2162   -2.6774   32.8352 F   0  0  0  0  0  0  0  0  0  0  0  0
   -0.5645   -1.7695   30.4081 C   0  0  0  0  0  0  0  0  0  0  0  0
   -0.9542   -3.2485   29.6839 Cl  0  0  0  0  0  0  0  0  0  0  0  0
    0.6130   -1.0698   30.2974 C   0  0  0  0  0  0  0  0  0  0  0  0
    1.8720   -1.5528   29.5234 C   0  0  0  0  0  0  0  0  0  0  0  0
    2.4919   -0.7373   28.4296 C   0  0  0  0  0  0  0  0  0  0  0  0
    1.7661   -1.9998   28.0894 C   0  0  0  0  0  0  0  0  0  0  0  0
   -1.1968    3.8405   26.2535 C   0  0  0  0  0  0  0  0  0  0  0  0
   -1.8480    4.8336   25.4985 C   0  0  0  0  0  0  0  0  0  0  0  0
   -3.1443    4.6109   25.0485 C   0  0  0  0  0  0  0  0  0  0  0  0
   -3.8113    3.4500   25.4028 C   0  0  0  0  0  0  0  0  0  0  0  0
   -3.1922    2.4693   26.1781 C   0  0  0  0  0  0  0  0  0  0  0  0
   -1.8753    2.6660   26.5805 C   0  0  0  0  0  0  0  0  0  0  0  0
  1  2  1  0
  2  3  1  0
  3  4  2  0
  4  5  1  0
  5  6  1  0
  6  7  1  0
  7  8  2  0
  7  9  1  0
  9 10  1  0
 10 11  1  0
 11 12  2  0
 11 13  1  0
 13 14  1  0
 14 15  1  0
 15 16  2  0
 16 17  1  0
 17 18  1  0
 17 19  1  0
 17 20  1  0
 16 21  1  0
 21 22  1  0
 21 23  2  0
 23 24  1  0
 24 25  1  0
 25 26  1  0
  4 27  1  0
 27 28  2  0
 28 29  1  0
 29 30  2  0
 30 31  1  0
 31 32  2  0
 32  2  1  0
 23 14  1  0
 26 24  1  0
 32 27  1  0
M  END
>  <name>  (95) 
P61127

>  <HIPPO Compound ID>  (95) 
98832

>  <energy_score>  (95) 
-9.204924

>  <HIPPO Pose ID>  (95) 
61127

>  <inspiration_score>  (95) 
None

>  <ref_pdb>  (95) 
7go7-a

>  <inchikey>  (95) 
WZAGTVXQBWDWCO-UHFFFAOYSA-N

>  <alias>  (95) 
None

>  <distance_score>  (95) 
1.910207

>  <ref_mols>  (95) 
7goy-a,7gp2-a

>  <smiles>  (95) 
Cn1cc(CCC(=O)NNC(=O)Cn2nc(C(F)(F)F)c(Cl)c2C2CC2)c2ccccc21

$$$$
P61129
     RDKit          3D

 32 35  0  0  0  0  0  0  0  0999 V2000
    0.2519    1.8563   34.3068 C   0  0  0  0  0  0  0  0  0  0  0  0
   -0.4602    2.6347   33.2053 C   0  0  0  0  0  0  0  0  0  0  0  0
   -0.0609    2.2179   31.7582 C   0  0  1  0  0  0  0  0  0  0  0  0
    1.4333    2.5401   31.5577 C   0  0  0  0  0  0  0  0  0  0  0  0
    1.8042    2.7381   30.1828 N   0  0  0  0  0  0  0  0  0  0  0  0
    1.4986    3.9088   29.2186 C   0  0  0  0  0  0  0  0  0  0  0  0
    0.9652    4.9271   29.4124 O   0  0  0  0  0  0  0  0  0  0  0  0
    2.1324    3.5806   27.8704 C   0  0  0  0  0  0  0  0  0  0  0  0
    1.6521    2.2935   27.2069 C   0  0  0  0  0  0  0  0  0  0  0  0
    0.1621    2.1048   27.1123 C   0  0  0  0  0  0  0  0  0  0  0  0
   -0.5781    0.9604   27.4391 C   0  0  0  0  0  0  0  0  0  0  0  0
   -0.2155   -0.4302   27.7931 C   0  0  0  0  0  0  0  0  0  0  0  0
   -1.1691   -1.3092   28.3283 C   0  0  0  0  0  0  0  0  0  0  0  0
   -0.8558   -2.6436   28.6062 C   0  0  0  0  0  0  0  0  0  0  0  0
    0.4250   -3.1303   28.3880 C   0  0  0  0  0  0  0  0  0  0  0  0
    1.3822   -2.2899   27.8421 C   0  0  0  0  0  0  0  0  0  0  0  0
    1.0556   -0.9641   27.5299 C   0  0  0  0  0  0  0  0  0  0  0  0
   -1.8971    1.3324   27.3091 N   0  0  0  0  0  0  0  0  0  0  0  0
   -2.0168    2.5339   26.6716 C   0  0  0  0  0  0  0  0  0  0  0  0
   -3.1536    3.1712   26.1776 C   0  0  0  0  0  0  0  0  0  0  0  0
   -2.9797    4.3617   25.4719 C   0  0  0  0  0  0  0  0  0  0  0  0
   -1.7239    4.9293   25.3274 C   0  0  0  0  0  0  0  0  0  0  0  0
   -0.6044    4.2898   25.8599 C   0  0  0  0  0  0  0  0  0  0  0  0
   -0.7440    3.0543   26.5280 C   0  0  0  0  0  0  0  0  0  0  0  0
   -0.5497    0.8647   31.4610 N   0  0  0  0  0  0  0  0  0  0  0  0
   -1.8858    0.6437   31.6785 N   0  0  0  0  0  0  0  0  0  0  0  0
   -1.9689   -0.6795   31.8785 C   0  0  0  0  0  0  0  0  0  0  0  0
   -3.2414   -1.2960   32.3127 C   0  0  0  0  0  0  0  0  0  0  0  0
   -0.7351   -1.3204   31.6589 C   0  0  0  0  0  0  0  0  0  0  0  0
   -0.4088   -2.9689   31.8984 Cl  0  0  0  0  0  0  0  0  0  0  0  0
    0.1018   -0.3177   31.2457 C   0  0  0  0  0  0  0  0  0  0  0  0
    1.6710   -0.4154   30.6181 Cl  0  0  0  0  0  0  0  0  0  0  0  0
  1  2  1  0
  3  2  1  1
  3  4  1  0
  4  5  1  0
  5  6  1  0
  6  7  2  0
  6  8  1  0
  8  9  1  0
  9 10  1  0
 10 11  2  0
 11 12  1  0
 12 13  2  0
 13 14  1  0
 14 15  2  0
 15 16  1  0
 16 17  2  0
 11 18  1  0
 18 19  1  0
 19 20  2  0
 20 21  1  0
 21 22  2  0
 22 23  1  0
 23 24  2  0
  3 25  1  0
 25 26  1  0
 26 27  2  0
 27 28  1  0
 27 29  1  0
 29 30  1  0
 29 31  2  0
 31 32  1  0
 24 10  1  0
 31 25  1  0
 17 12  1  0
 24 19  1  0
M  END
>  <name>  (96) 
P61129

>  <HIPPO Compound ID>  (96) 
98851

>  <energy_score>  (96) 
-15.501216

>  <HIPPO Pose ID>  (96) 
61129

>  <inspiration_score>  (96) 
None

>  <ref_pdb>  (96) 
7go7-a

>  <inchikey>  (96) 
KFORQYDMGLCURE-SFHVURJKSA-N

>  <alias>  (96) 
None

>  <distance_score>  (96) 
1.803577

>  <ref_mols>  (96) 
7goy-a,7gp2-a

>  <smiles>  (96) 
CC[C@@H](CNC(=O)CCc1c(-c2ccccc2)[nH]c2ccccc12)n1nc(C)c(Cl)c1Cl

$$$$
P61130
     RDKit          3D

 32 34  0  0  0  0  0  0  0  0999 V2000
   -2.0918   -1.8956   32.5977 C   0  0  0  0  0  0  0  0  0  0  0  0
   -1.1518   -1.3564   31.5893 C   0  0  0  0  0  0  0  0  0  0  0  0
   -0.5568   -0.1739   31.7750 N   0  0  0  0  0  0  0  0  0  0  0  0
    0.1566    0.0247   30.6328 N   0  0  0  0  0  0  0  0  0  0  0  0
    0.9936    1.2230   30.6024 C   0  0  2  0  0  0  0  0  0  0  0  0
    0.1091    2.4735   30.5282 C   0  0  0  0  0  0  0  0  0  0  0  0
   -0.7236    2.7057   29.3722 N   0  0  0  0  0  0  0  0  0  0  0  0
   -1.9251    1.8872   28.8101 C   0  0  0  0  0  0  0  0  0  0  0  0
   -2.3703    0.8623   29.1542 O   0  0  0  0  0  0  0  0  0  0  0  0
   -2.6017    2.6980   27.7048 C   0  0  0  0  0  0  0  0  0  0  0  0
   -2.0787    2.4615   26.3182 C   0  0  2  0  0  0  0  0  0  0  0  0
   -1.9978    1.0283   26.1225 O   0  0  0  0  0  0  0  0  0  0  0  0
   -0.7211    3.0749   26.2837 C   0  0  0  0  0  0  0  0  0  0  0  0
    0.4548    2.3666   26.3849 C   0  0  0  0  0  0  0  0  0  0  0  0
    1.4691    3.2267   26.6414 N   0  0  0  0  0  0  0  0  0  0  0  0
    0.9695    4.4913   26.7933 C   0  0  0  0  0  0  0  0  0  0  0  0
    1.6265    5.6567   27.1857 C   0  0  0  0  0  0  0  0  0  0  0  0
    0.8948    6.8411   27.2541 C   0  0  0  0  0  0  0  0  0  0  0  0
   -0.4583    6.8484   26.9528 C   0  0  0  0  0  0  0  0  0  0  0  0
   -1.1117    5.6676   26.5793 C   0  0  0  0  0  0  0  0  0  0  0  0
   -0.3882    4.4578   26.4819 C   0  0  0  0  0  0  0  0  0  0  0  0
   -3.0764    3.0331   25.2924 C   0  0  0  0  0  0  0  0  0  0  0  0
   -3.2894    4.3535   25.3627 F   0  0  0  0  0  0  0  0  0  0  0  0
   -2.6497    2.7424   24.0354 F   0  0  0  0  0  0  0  0  0  0  0  0
   -4.2815    2.4397   25.4888 F   0  0  0  0  0  0  0  0  0  0  0  0
    2.2520    1.2180   29.6888 C   0  0  0  0  0  0  0  0  0  0  0  0
    3.0329    2.5393   29.7552 C   0  0  0  0  0  0  0  0  0  0  0  0
    3.2245    0.0941   30.0880 C   0  0  0  0  0  0  0  0  0  0  0  0
   -0.0384   -0.9717   29.7089 C   0  0  0  0  0  0  0  0  0  0  0  0
    0.3832   -0.9610   28.2909 C   0  0  0  0  0  0  0  0  0  0  0  0
   -0.7390   -1.9430   30.3813 C   0  0  0  0  0  0  0  0  0  0  0  0
   -1.0518   -3.5095   29.8536 Cl  0  0  0  0  0  0  0  0  0  0  0  0
  1  2  1  0
  2  3  2  0
  3  4  1  0
  4  5  1  0
  5  6  1  6
  6  7  1  0
  7  8  1  0
  8  9  2  0
  8 10  1  0
 10 11  1  0
 11 12  1  6
 11 13  1  0
 13 14  2  0
 14 15  1  0
 15 16  1  0
 16 17  2  0
 17 18  1  0
 18 19  2  0
 19 20  1  0
 20 21  2  0
 11 22  1  0
 22 23  1  0
 22 24  1  0
 22 25  1  0
  5 26  1  0
 26 27  1  0
 26 28  1  0
  4 29  1  0
 29 30  1  0
 29 31  2  0
 31 32  1  0
 31  2  1  0
 21 13  1  0
 21 16  1  0
M  END
>  <name>  (97) 
P61130

>  <HIPPO Compound ID>  (97) 
98863

>  <energy_score>  (97) 
-9.571393

>  <HIPPO Pose ID>  (97) 
61130

>  <inspiration_score>  (97) 
None

>  <ref_pdb>  (97) 
7go7-a

>  <inchikey>  (97) 
YFSXPNLSTPHSQZ-NQIIRXRSSA-N

>  <alias>  (97) 
None

>  <distance_score>  (97) 
1.954996

>  <ref_mols>  (97) 
7goy-a,7gp2-a

>  <smiles>  (97) 
Cc1nn([C@H](CNC(=O)C[C@](O)(c2c[nH]c3ccccc23)C(F)(F)F)C(C)C)c(C)c1Cl

$$$$
P61131
     RDKit          3D

 32 35  0  0  0  0  0  0  0  0999 V2000
   -3.2227    4.8845   24.5846 C   0  0  0  0  0  0  0  0  0  0  0  0
   -2.5424    3.9898   25.5760 C   0  0  0  0  0  0  0  0  0  0  0  0
   -3.0539    2.7198   25.8453 C   0  0  0  0  0  0  0  0  0  0  0  0
   -2.3156    1.7546   26.5335 C   0  0  0  0  0  0  0  0  0  0  0  0
   -1.0399    2.1223   26.9530 C   0  0  0  0  0  0  0  0  0  0  0  0
   -0.0226    1.3693   27.4775 N   0  0  0  0  0  0  0  0  0  0  0  0
    1.1022    2.1410   27.6839 C   0  0  0  0  0  0  0  0  0  0  0  0
    2.3819    1.5566   28.0128 C   0  0  0  0  0  0  0  0  0  0  0  0
    3.3999    2.0716   28.7933 C   0  0  0  0  0  0  0  0  0  0  0  0
    4.5391    1.2151   28.8667 C   0  0  0  0  0  0  0  0  0  0  0  0
    4.3676    0.0697   28.1274 C   0  0  0  0  0  0  0  0  0  0  0  0
    2.8447    0.0295   27.3614 S   0  0  0  0  0  0  0  0  0  0  0  0
    0.7323    3.4596   27.4535 C   0  0  0  0  0  0  0  0  0  0  0  0
    1.5268    4.7106   27.6745 C   0  0  0  0  0  0  0  0  0  0  0  0
    1.0465    5.4844   28.9017 C   0  0  0  0  0  0  0  0  0  0  0  0
    1.4929    4.8361   30.2102 C   0  0  0  0  0  0  0  0  0  0  0  0
    2.4840    5.1475   30.7428 O   0  0  0  0  0  0  0  0  0  0  0  0
    0.4272    3.7821   30.6075 N   0  0  0  0  0  0  0  0  0  0  0  0
    0.3151    2.9608   31.7932 C   0  0  0  0  0  0  0  0  0  0  0  0
    0.8759    1.5505   31.6410 C   0  0  0  0  0  0  0  0  0  0  0  0
   -0.0884    0.5623   31.1806 N   0  0  0  0  0  0  0  0  0  0  0  0
    0.1063   -0.3689   30.2047 C   0  0  0  0  0  0  0  0  0  0  0  0
   -0.9075   -1.2821   30.3212 C   0  0  0  0  0  0  0  0  0  0  0  0
   -1.1076   -2.6892   29.4070 Cl  0  0  0  0  0  0  0  0  0  0  0  0
   -1.6445   -0.8704   31.4539 C   0  0  0  0  0  0  0  0  0  0  0  0
   -2.6901   -1.6767   32.1558 C   0  0  0  0  0  0  0  0  0  0  0  0
   -2.1355   -2.7857   32.7103 F   0  0  0  0  0  0  0  0  0  0  0  0
   -3.6617   -2.1291   31.3159 F   0  0  0  0  0  0  0  0  0  0  0  0
   -3.3199   -0.9945   33.1465 F   0  0  0  0  0  0  0  0  0  0  0  0
   -1.1858    0.3120   31.9249 N   0  0  0  0  0  0  0  0  0  0  0  0
   -0.5518    3.4181   26.8282 C   0  0  0  0  0  0  0  0  0  0  0  0
   -1.3195    4.3712   26.1340 C   0  0  0  0  0  0  0  0  0  0  0  0
  1  2  1  0
  2  3  2  0
  3  4  1  0
  4  5  2  0
  5  6  1  0
  6  7  1  0
  7  8  1  0
  8  9  2  0
  9 10  1  0
 10 11  2  0
 11 12  1  0
  7 13  2  0
 13 14  1  0
 14 15  1  0
 15 16  1  0
 16 17  2  0
 16 18  1  0
 18 19  1  0
 19 20  1  0
 20 21  1  0
 21 22  1  0
 22 23  2  0
 23 24  1  0
 23 25  1  0
 25 26  1  0
 26 27  1  0
 26 28  1  0
 26 29  1  0
 25 30  2  0
 13 31  1  0
 31 32  2  0
 32  2  1  0
 31  5  1  0
 12  8  1  0
 30 21  1  0
M  END
>  <name>  (98) 
P61131

>  <HIPPO Compound ID>  (98) 
98868

>  <energy_score>  (98) 
-27.928773

>  <HIPPO Pose ID>  (98) 
61131

>  <inspiration_score>  (98) 
None

>  <ref_pdb>  (98) 
7go7-a

>  <inchikey>  (98) 
DFHBNQIFQYSVRE-UHFFFAOYSA-N

>  <alias>  (98) 
None

>  <distance_score>  (98) 
1.176884

>  <ref_mols>  (98) 
7goy-a,7gp2-a

>  <smiles>  (98) 
Cc1ccc2[nH]c(-c3cccs3)c(CCC(=O)NCCn3cc(Cl)c(C(F)(F)F)n3)c2c1

$$$$
P61133
     RDKit          3D

 32 35  0  0  0  0  0  0  0  0999 V2000
    1.1745    1.4199   34.1192 C   0  0  0  0  0  0  0  0  0  0  0  0
    1.9257    1.1218   32.8284 C   0  0  0  0  0  0  0  0  0  0  0  0
    1.0720    0.9719   31.5553 C   0  0  2  0  0  0  0  0  0  0  0  0
    0.0226    2.0811   31.3536 C   0  0  0  0  0  0  0  0  0  0  0  0
   -0.6753    1.8903   30.1017 N   0  0  0  0  0  0  0  0  0  0  0  0
   -1.9765    1.1167   29.7847 C   0  0  0  0  0  0  0  0  0  0  0  0
   -2.7292    0.5778   30.4970 O   0  0  0  0  0  0  0  0  0  0  0  0
   -2.2111    1.0914   28.2772 C   0  0  0  0  0  0  0  0  0  0  0  0
   -1.0551    1.0029   27.2960 C   0  0  0  0  0  0  0  0  0  0  0  0
   -0.5360    2.3518   26.9480 C   0  0  0  0  0  0  0  0  0  0  0  0
    0.7017    2.9038   27.2485 C   0  0  0  0  0  0  0  0  0  0  0  0
    1.9550    2.4047   27.7343 C   0  0  0  0  0  0  0  0  0  0  0  0
    2.6641    2.8643   28.8291 C   0  0  0  0  0  0  0  0  0  0  0  0
    3.9297    2.2206   28.9707 C   0  0  0  0  0  0  0  0  0  0  0  0
    4.1595    1.3185   27.9573 C   0  0  0  0  0  0  0  0  0  0  0  0
    2.8722    1.2795   26.8350 S   0  0  0  0  0  0  0  0  0  0  0  0
    0.5920    4.2464   27.0267 N   0  0  0  0  0  0  0  0  0  0  0  0
   -0.5418    4.5260   26.3269 C   0  0  0  0  0  0  0  0  0  0  0  0
   -0.9531    5.7268   25.7592 C   0  0  0  0  0  0  0  0  0  0  0  0
   -2.0956    5.7011   24.9608 C   0  0  0  0  0  0  0  0  0  0  0  0
   -2.8415    4.5327   24.8082 C   0  0  0  0  0  0  0  0  0  0  0  0
   -4.0055    4.4929   23.8678 C   0  0  0  0  0  0  0  0  0  0  0  0
   -2.4677    3.3687   25.4956 C   0  0  0  0  0  0  0  0  0  0  0  0
   -1.2638    3.3493   26.2229 C   0  0  0  0  0  0  0  0  0  0  0  0
    0.4200   -0.3286   31.4269 N   0  0  0  0  0  0  0  0  0  0  0  0
   -0.5045   -0.6687   32.3524 N   0  0  0  0  0  0  0  0  0  0  0  0
   -1.2041   -1.6468   31.7610 C   0  0  0  0  0  0  0  0  0  0  0  0
   -2.4084   -2.1806   32.4194 C   0  0  0  0  0  0  0  0  0  0  0  0
   -0.6379   -2.0299   30.5275 C   0  0  0  0  0  0  0  0  0  0  0  0
   -1.1298   -3.2547   29.4846 Cl  0  0  0  0  0  0  0  0  0  0  0  0
    0.4060   -1.1725   30.3533 C   0  0  0  0  0  0  0  0  0  0  0  0
    1.4885   -1.0535   29.0568 Cl  0  0  0  0  0  0  0  0  0  0  0  0
  1  2  1  0
  3  2  1  1
  3  4  1  0
  4  5  1  0
  5  6  1  0
  6  7  2  0
  6  8  1  0
  8  9  1  0
  9 10  1  0
 10 11  2  0
 11 12  1  0
 12 13  2  0
 13 14  1  0
 14 15  2  0
 15 16  1  0
 11 17  1  0
 17 18  1  0
 18 19  2  0
 19 20  1  0
 20 21  2  0
 21 22  1  0
 21 23  1  0
 23 24  2  0
  3 25  1  0
 25 26  1  0
 26 27  2  0
 27 28  1  0
 27 29  1  0
 29 30  1  0
 29 31  2  0
 31 32  1  0
 24 10  1  0
 31 25  1  0
 16 12  1  0
 24 18  1  0
M  END
>  <name>  (99) 
P61133

>  <HIPPO Compound ID>  (99) 
98871

>  <energy_score>  (99) 
-12.931153

>  <HIPPO Pose ID>  (99) 
61133

>  <inspiration_score>  (99) 
None

>  <ref_pdb>  (99) 
7go7-a

>  <inchikey>  (99) 
XNEGZXZMSSFDOD-MRXNPFEDSA-N

>  <alias>  (99) 
None

>  <distance_score>  (99) 
1.950563

>  <ref_mols>  (99) 
7goy-a,7gp2-a

>  <smiles>  (99) 
CC[C@H](CNC(=O)CCc1c(-c2cccs2)[nH]c2ccc(C)cc12)n1nc(C)c(Cl)c1Cl

$$$$
P61134
     RDKit          3D

 32 34  0  0  0  0  0  0  0  0999 V2000
    3.9181    4.9004   25.9256 C   0  0  0  0  0  0  0  0  0  0  0  0
    2.6827    5.2661   25.1211 C   0  0  0  0  0  0  0  0  0  0  0  0
    1.3481    5.4132   25.8841 C   0  0  2  0  0  0  0  0  0  0  0  0
    1.3945    6.2403   27.1945 C   0  0  0  0  0  0  0  0  0  0  0  0
    1.9028    5.5094   28.4484 C   0  0  0  0  0  0  0  0  0  0  0  0
    3.0502    5.6339   28.7688 O   0  0  0  0  0  0  0  0  0  0  0  0
    0.8588    4.6831   28.9957 N   0  0  0  0  0  0  0  0  0  0  0  0
    0.8904    3.7492   29.9625 N   0  0  0  0  0  0  0  0  0  0  0  0
    0.1574    2.5173   30.1088 C   0  0  0  0  0  0  0  0  0  0  0  0
   -0.7256    2.0491   29.4465 O   0  0  0  0  0  0  0  0  0  0  0  0
    0.6918    1.6836   31.2959 C   0  0  2  0  0  0  0  0  0  0  0  0
    2.2139    1.5872   31.4149 C   0  0  0  0  0  0  0  0  0  0  0  0
    0.0904    0.3394   31.2477 N   0  0  0  0  0  0  0  0  0  0  0  0
   -0.8115    0.0221   32.2038 N   0  0  0  0  0  0  0  0  0  0  0  0
   -1.2227   -1.2216   31.8816 C   0  0  0  0  0  0  0  0  0  0  0  0
   -2.2301   -1.9785   32.6889 C   0  0  0  0  0  0  0  0  0  0  0  0
   -1.6166   -2.8627   33.5165 F   0  0  0  0  0  0  0  0  0  0  0  0
   -3.0876   -2.6933   31.9001 F   0  0  0  0  0  0  0  0  0  0  0  0
   -3.0083   -1.1697   33.4586 F   0  0  0  0  0  0  0  0  0  0  0  0
   -0.5417   -1.6969   30.7393 C   0  0  0  0  0  0  0  0  0  0  0  0
   -0.7056   -3.2259   30.0219 Cl  0  0  0  0  0  0  0  0  0  0  0  0
    0.2898   -0.6750   30.3358 C   0  0  0  0  0  0  0  0  0  0  0  0
    1.2149   -0.6214   29.1726 C   0  0  0  0  0  0  0  0  0  0  0  0
    0.5729    4.1201   26.0274 C   0  0  0  0  0  0  0  0  0  0  0  0
    1.0323    2.9031   26.4967 C   0  0  0  0  0  0  0  0  0  0  0  0
   -0.0422    2.0769   26.6728 N   0  0  0  0  0  0  0  0  0  0  0  0
   -1.1884    2.6898   26.2389 C   0  0  0  0  0  0  0  0  0  0  0  0
   -2.5061    2.2288   26.2547 C   0  0  0  0  0  0  0  0  0  0  0  0
   -3.4826    3.0634   25.7132 C   0  0  0  0  0  0  0  0  0  0  0  0
   -3.1469    4.3014   25.1759 C   0  0  0  0  0  0  0  0  0  0  0  0
   -1.8325    4.7710   25.2245 C   0  0  0  0  0  0  0  0  0  0  0  0
   -0.8276    3.9493   25.7676 C   0  0  0  0  0  0  0  0  0  0  0  0
  1  2  1  0
  3  2  1  1
  3  4  1  0
  4  5  1  0
  5  6  2  0
  5  7  1  0
  7  8  1  0
  8  9  1  0
  9 10  2  0
  9 11  1  0
 11 12  1  6
 11 13  1  0
 13 14  1  0
 14 15  2  0
 15 16  1  0
 16 17  1  0
 16 18  1  0
 16 19  1  0
 15 20  1  0
 20 21  1  0
 20 22  2  0
 22 23  1  0
  3 24  1  0
 24 25  2  0
 25 26  1  0
 26 27  1  0
 27 28  2  0
 28 29  1  0
 29 30  2  0
 30 31  1  0
 31 32  2  0
 22 13  1  0
 32 24  1  0
 32 27  1  0
M  END
>  <name>  (100) 
P61134

>  <HIPPO Compound ID>  (100) 
98882

>  <energy_score>  (100) 
-27.993981

>  <HIPPO Pose ID>  (100) 
61134

>  <inspiration_score>  (100) 
None

>  <ref_pdb>  (100) 
7go7-a

>  <inchikey>  (100) 
NZAXTFZYELSHIO-QWHCGFSZSA-N

>  <alias>  (100) 
None

>  <distance_score>  (100) 
1.859817

>  <ref_mols>  (100) 
7goy-a,7gp2-a

>  <smiles>  (100) 
CC[C@H](CC(=O)NNC(=O)[C@H](C)n1nc(C(F)(F)F)c(Cl)c1C)c1c[nH]c2ccccc12

$$$$
P61136
     RDKit          3D

 32 35  0  0  0  0  0  0  0  0999 V2000
   -1.4016    6.1400   22.9314 C   0  0  0  0  0  0  0  0  0  0  0  0
   -0.7026    5.3719   24.0443 C   0  0  0  0  0  0  0  0  0  0  0  0
   -1.5507    5.2194   25.3303 C   0  0  1  0  0  0  0  0  0  0  0  0
   -2.8789    4.4630   25.1146 C   0  0  0  0  0  0  0  0  0  0  0  0
   -2.5881    2.9838   24.9934 C   0  0  0  0  0  0  0  0  0  0  0  0
   -2.1960    2.4878   24.0082 O   0  0  0  0  0  0  0  0  0  0  0  0
   -2.8150    2.3748   26.4080 N   0  0  0  0  0  0  0  0  0  0  0  0
   -2.5378    1.1570   26.8825 N   0  0  0  0  0  0  0  0  0  0  0  0
   -1.7871    0.7240   28.1735 C   0  0  0  0  0  0  0  0  0  0  0  0
   -1.2310    1.3652   28.9769 O   0  0  0  0  0  0  0  0  0  0  0  0
   -1.7900   -0.7858   28.1958 C   0  0  0  0  0  0  0  0  0  0  0  0
   -1.3811   -1.2294   29.5073 N   0  0  0  0  0  0  0  0  0  0  0  0
   -2.2608   -1.1759   30.5257 N   0  0  0  0  0  0  0  0  0  0  0  0
   -1.5373   -1.5267   31.6008 C   0  0  0  0  0  0  0  0  0  0  0  0
   -2.1140   -1.5154   32.9778 C   0  0  0  0  0  0  0  0  0  0  0  0
   -3.3808   -1.0129   33.0115 F   0  0  0  0  0  0  0  0  0  0  0  0
   -1.3831   -0.7181   33.8093 F   0  0  0  0  0  0  0  0  0  0  0  0
   -0.2275   -1.9125   31.2204 C   0  0  0  0  0  0  0  0  0  0  0  0
    0.9689   -2.5235   32.2571 Cl  0  0  0  0  0  0  0  0  0  0  0  0
   -0.1522   -1.6856   29.8678 C   0  0  0  0  0  0  0  0  0  0  0  0
    1.0534   -1.9280   28.9221 C   0  0  0  0  0  0  0  0  0  0  0  0
    1.6368   -0.7886   28.1317 C   0  0  0  0  0  0  0  0  0  0  0  0
    2.4030   -1.3631   29.2827 C   0  0  0  0  0  0  0  0  0  0  0  0
   -0.6974    4.6367   26.4506 C   0  0  0  0  0  0  0  0  0  0  0  0
   -0.0865    3.3928   26.4837 C   0  0  0  0  0  0  0  0  0  0  0  0
    0.4668    3.2103   27.7195 N   0  0  0  0  0  0  0  0  0  0  0  0
    0.4296    4.3823   28.4249 C   0  0  0  0  0  0  0  0  0  0  0  0
    0.9825    4.6978   29.6720 C   0  0  0  0  0  0  0  0  0  0  0  0
    0.8432    6.0101   30.1286 C   0  0  0  0  0  0  0  0  0  0  0  0
    0.1664    6.9608   29.3702 C   0  0  0  0  0  0  0  0  0  0  0  0
   -0.4070    6.6180   28.1383 C   0  0  0  0  0  0  0  0  0  0  0  0
   -0.2777    5.3017   27.6492 C   0  0  0  0  0  0  0  0  0  0  0  0
  1  2  1  0
  3  2  1  6
  3  4  1  0
  4  5  1  0
  5  6  2  0
  5  7  1  0
  7  8  1  0
  8  9  1  0
  9 10  2  0
  9 11  1  0
 11 12  1  0
 12 13  1  0
 13 14  2  0
 14 15  1  0
 15 16  1  0
 15 17  1  0
 14 18  1  0
 18 19  1  0
 18 20  2  0
 20 21  1  0
 21 22  1  0
 22 23  1  0
  3 24  1  0
 24 25  2  0
 25 26  1  0
 26 27  1  0
 27 28  2  0
 28 29  1  0
 29 30  2  0
 30 31  1  0
 31 32  2  0
 20 12  1  0
 23 21  1  0
 32 24  1  0
 32 27  1  0
M  END
>  <name>  (101) 
P61136

>  <HIPPO Compound ID>  (101) 
98883

>  <energy_score>  (101) 
-4.034693

>  <HIPPO Pose ID>  (101) 
61136

>  <inspiration_score>  (101) 
None

>  <ref_pdb>  (101) 
7go7-a

>  <inchikey>  (101) 
LPFDEJZGDLJINL-LBPRGKRZSA-N

>  <alias>  (101) 
None

>  <distance_score>  (101) 
1.988649

>  <ref_mols>  (101) 
7goy-a,7gp2-a

>  <smiles>  (101) 
CC[C@@H](CC(=O)NNC(=O)Cn1nc(C(F)F)c(Cl)c1C1CC1)c1c[nH]c2ccccc12

$$$$
P61138
     RDKit          3D

 32 35  0  0  0  0  0  0  0  0999 V2000
   -3.4952    4.6683   24.5050 C   0  0  0  0  0  0  0  0  0  0  0  0
   -2.6906    3.9323   25.5335 C   0  0  0  0  0  0  0  0  0  0  0  0
   -3.0348    2.6225   25.8724 C   0  0  0  0  0  0  0  0  0  0  0  0
   -2.1575    1.7798   26.5524 C   0  0  0  0  0  0  0  0  0  0  0  0
   -0.9202    2.3204   26.8890 C   0  0  0  0  0  0  0  0  0  0  0  0
    0.2189    1.7167   27.3471 N   0  0  0  0  0  0  0  0  0  0  0  0
    1.2408    2.6298   27.5079 C   0  0  0  0  0  0  0  0  0  0  0  0
    2.6353    2.2231   27.7424 C   0  0  0  0  0  0  0  0  0  0  0  0
    3.4185    2.7791   28.7602 C   0  0  0  0  0  0  0  0  0  0  0  0
    4.7442    2.3739   28.9584 C   0  0  0  0  0  0  0  0  0  0  0  0
    5.3052    1.4095   28.1278 C   0  0  0  0  0  0  0  0  0  0  0  0
    7.0936    0.8616   28.3867 Br  0  0  0  0  0  0  0  0  0  0  0  0
    4.5538    0.8529   27.1005 C   0  0  0  0  0  0  0  0  0  0  0  0
    3.2308    1.2636   26.9099 C   0  0  0  0  0  0  0  0  0  0  0  0
    0.6607    3.8820   27.3429 C   0  0  0  0  0  0  0  0  0  0  0  0
    1.2523    5.2236   27.6443 C   0  0  0  0  0  0  0  0  0  0  0  0
    0.6251    5.8369   28.8997 C   0  0  0  0  0  0  0  0  0  0  0  0
    1.1211    5.1933   30.1966 C   0  0  0  0  0  0  0  0  0  0  0  0
    1.9877    5.6687   30.8196 O   0  0  0  0  0  0  0  0  0  0  0  0
    0.3111    3.8889   30.4316 N   0  0  0  0  0  0  0  0  0  0  0  0
    0.3385    2.9503   31.5362 C   0  0  0  0  0  0  0  0  0  0  0  0
    0.8230    1.5417   31.1745 C   0  0  0  0  0  0  0  0  0  0  0  0
   -0.2097    0.5717   30.8340 N   0  0  0  0  0  0  0  0  0  0  0  0
   -1.3294    0.5361   31.5989 N   0  0  0  0  0  0  0  0  0  0  0  0
   -1.8919   -0.6467   31.3177 C   0  0  0  0  0  0  0  0  0  0  0  0
   -3.0635   -1.1179   32.0943 C   0  0  0  0  0  0  0  0  0  0  0  0
   -1.1800   -1.3237   30.3123 C   0  0  0  0  0  0  0  0  0  0  0  0
   -1.4887   -2.8626   29.6956 Cl  0  0  0  0  0  0  0  0  0  0  0  0
   -0.0906   -0.5369   30.0216 C   0  0  0  0  0  0  0  0  0  0  0  0
    1.0549   -0.8804   29.1443 C   0  0  0  0  0  0  0  0  0  0  0  0
   -0.6123    3.6659   26.7323 C   0  0  0  0  0  0  0  0  0  0  0  0
   -1.5193    4.4942   26.0482 C   0  0  0  0  0  0  0  0  0  0  0  0
  1  2  1  0
  2  3  2  0
  3  4  1  0
  4  5  2  0
  5  6  1  0
  6  7  1  0
  7  8  1  0
  8  9  2  0
  9 10  1  0
 10 11  2  0
 11 12  1  0
 11 13  1  0
 13 14  2  0
  7 15  2  0
 15 16  1  0
 16 17  1  0
 17 18  1  0
 18 19  2  0
 18 20  1  0
 20 21  1  0
 21 22  1  0
 22 23  1  0
 23 24  1  0
 24 25  2  0
 25 26  1  0
 25 27  1  0
 27 28  1  0
 27 29  2  0
 29 30  1  0
 15 31  1  0
 31 32  2  0
 32  2  1  0
 31  5  1  0
 14  8  1  0
 29 23  1  0
M  END
>  <name>  (102) 
P61138

>  <HIPPO Compound ID>  (102) 
98932

>  <energy_score>  (102) 
-18.367817

>  <HIPPO Pose ID>  (102) 
61138

>  <inspiration_score>  (102) 
None

>  <ref_pdb>  (102) 
7go7-a

>  <inchikey>  (102) 
YPOAAKOBOJWPFJ-UHFFFAOYSA-N

>  <alias>  (102) 
None

>  <distance_score>  (102) 
1.257039

>  <ref_mols>  (102) 
7goy-a,7gp2-a

>  <smiles>  (102) 
Cc1ccc2[nH]c(-c3ccc(Br)cc3)c(CCC(=O)NCCn3nc(C)c(Cl)c3C)c2c1

$$$$
P61140
     RDKit          3D

 32 34  0  0  0  0  0  0  0  0999 V2000
   -3.6428    4.2395   24.3335 C   0  0  0  0  0  0  0  0  0  0  0  0
   -2.5107    3.4013   24.0888 O   0  0  0  0  0  0  0  0  0  0  0  0
   -1.6109    3.5230   25.1065 C   0  0  0  0  0  0  0  0  0  0  0  0
   -0.4942    4.3275   24.8970 C   0  0  0  0  0  0  0  0  0  0  0  0
    0.4346    4.5155   25.9211 C   0  0  0  0  0  0  0  0  0  0  0  0
    0.2246    3.8716   27.1549 C   0  0  0  0  0  0  0  0  0  0  0  0
    0.8888    3.9108   28.4208 C   0  0  0  0  0  0  0  0  0  0  0  0
    2.0859    4.7343   28.8128 C   0  0  0  0  0  0  0  0  0  0  0  0
    3.4029    3.9555   28.8830 C   0  0  0  0  0  0  0  0  0  0  0  0
    3.3156    2.8711   29.9532 C   0  0  0  0  0  0  0  0  0  0  0  0
    3.4017    3.0983   31.0962 O   0  0  0  0  0  0  0  0  0  0  0  0
    3.0024    1.5409   29.2115 N   0  0  0  0  0  0  0  0  0  0  0  0
    2.6639    0.3355   29.6916 N   0  0  0  0  0  0  0  0  0  0  0  0
    2.7466   -1.0750   29.0335 C   0  0  0  0  0  0  0  0  0  0  0  0
    3.1938   -1.4060   28.0044 O   0  0  0  0  0  0  0  0  0  0  0  0
    2.0077   -2.0716   29.9349 C   0  0  1  0  0  0  0  0  0  0  0  0
    2.8478   -2.3346   31.1881 C   0  0  0  0  0  0  0  0  0  0  0  0
    0.6179   -1.6644   30.2165 N   0  0  0  0  0  0  0  0  0  0  0  0
    0.0478   -2.0741   31.3733 N   0  0  0  0  0  0  0  0  0  0  0  0
   -1.1720   -1.5080   31.3842 C   0  0  0  0  0  0  0  0  0  0  0  0
   -2.2266   -1.8282   32.3998 C   0  0  0  0  0  0  0  0  0  0  0  0
   -1.7627   -2.6273   33.3883 F   0  0  0  0  0  0  0  0  0  0  0  0
   -3.2705   -2.4913   31.8201 F   0  0  0  0  0  0  0  0  0  0  0  0
   -2.7482   -0.7186   32.9883 F   0  0  0  0  0  0  0  0  0  0  0  0
   -1.3077   -0.6459   30.2874 C   0  0  0  0  0  0  0  0  0  0  0  0
   -2.5492    0.4655   30.0773 Cl  0  0  0  0  0  0  0  0  0  0  0  0
   -0.2615   -0.9401   29.4425 C   0  0  0  0  0  0  0  0  0  0  0  0
   -0.0473   -0.6065   28.0104 C   0  0  0  0  0  0  0  0  0  0  0  0
    0.1815    3.0758   29.2628 C   0  0  0  0  0  0  0  0  0  0  0  0
   -0.8389    2.5194   28.5551 N   0  0  0  0  0  0  0  0  0  0  0  0
   -0.8748    3.0181   27.2857 C   0  0  0  0  0  0  0  0  0  0  0  0
   -1.8155    2.8081   26.2818 C   0  0  0  0  0  0  0  0  0  0  0  0
  1  2  1  0
  2  3  1  0
  3  4  2  0
  4  5  1  0
  5  6  2  0
  6  7  1  0
  7  8  1  0
  8  9  1  0
  9 10  1  0
 10 11  2  0
 10 12  1  0
 12 13  1  0
 13 14  1  0
 14 15  2  0
 14 16  1  0
 16 17  1  1
 16 18  1  0
 18 19  1  0
 19 20  2  0
 20 21  1  0
 21 22  1  0
 21 23  1  0
 21 24  1  0
 20 25  1  0
 25 26  1  0
 25 27  2  0
 27 28  1  0
  7 29  2  0
 29 30  1  0
 30 31  1  0
 31 32  2  0
 32  3  1  0
 31  6  1  0
 27 18  1  0
M  END
>  <name>  (103) 
P61140

>  <HIPPO Compound ID>  (103) 
98933

>  <energy_score>  (103) 
-9.910122

>  <HIPPO Pose ID>  (103) 
61140

>  <inspiration_score>  (103) 
None

>  <ref_pdb>  (103) 
7go7-a

>  <inchikey>  (103) 
VWVGZXLQPHRRKT-LLVKDONJSA-N

>  <alias>  (103) 
None

>  <distance_score>  (103) 
1.527149

>  <ref_mols>  (103) 
7goy-a,7gp2-a

>  <smiles>  (103) 
COc1ccc2c(CCC(=O)NNC(=O)[C@@H](C)n3nc(C(F)(F)F)c(Cl)c3C)c[nH]c2c1

$$$$
P61141
     RDKit          3D

 32 35  0  0  0  0  0  0  0  0999 V2000
   -7.3659   -0.8266   33.9652 C   0  0  0  0  0  0  0  0  0  0  0  0
   -7.2905   -0.3730   35.3769 C   0  0  0  0  0  0  0  0  0  0  0  0
   -8.2728    0.1095   36.2177 C   0  0  0  0  0  0  0  0  0  0  0  0
   -9.9248    0.3075   35.8840 Cl  0  0  0  0  0  0  0  0  0  0  0  0
   -7.6338    0.3967   37.4450 C   0  0  0  0  0  0  0  0  0  0  0  0
   -8.2865    0.9528   38.6760 C   0  0  0  0  0  0  0  0  0  0  0  0
   -7.4190    1.1741   39.6995 F   0  0  0  0  0  0  0  0  0  0  0  0
   -9.2453    0.1145   39.1573 F   0  0  0  0  0  0  0  0  0  0  0  0
   -8.9024    2.1422   38.4317 F   0  0  0  0  0  0  0  0  0  0  0  0
   -6.3274    0.0735   37.3826 N   0  0  0  0  0  0  0  0  0  0  0  0
   -6.1282   -0.3348   36.1121 N   0  0  0  0  0  0  0  0  0  0  0  0
   -4.8079   -0.8348   35.7139 C   0  0  2  0  0  0  0  0  0  0  0  0
   -3.7866   -0.9069   36.8531 C   0  0  0  0  0  0  0  0  0  0  0  0
   -4.2203   -0.0050   34.5745 C   0  0  0  0  0  0  0  0  0  0  0  0
   -4.4740    1.1269   34.4158 O   0  0  0  0  0  0  0  0  0  0  0  0
   -3.2495   -0.9451   33.7876 N   0  0  0  0  0  0  0  0  0  0  0  0
   -2.5311   -0.7205   32.6829 N   0  0  0  0  0  0  0  0  0  0  0  0
   -2.4749   -1.5064   31.3319 C   0  0  0  0  0  0  0  0  0  0  0  0
   -2.9900   -2.5080   31.0163 O   0  0  0  0  0  0  0  0  0  0  0  0
   -1.6388   -0.5759   30.4444 C   0  0  2  0  0  0  0  0  0  0  0  0
   -1.5827   -0.8542   28.9302 C   0  0  0  0  0  0  0  0  0  0  0  0
   -0.9345    0.3842   28.3883 C   0  0  0  0  0  0  0  0  0  0  0  0
    0.1257    0.8955   29.1072 C   0  0  0  0  0  0  0  0  0  0  0  0
    0.5293    2.0526   28.5145 N   0  0  0  0  0  0  0  0  0  0  0  0
   -0.4276    2.4467   27.6052 C   0  0  0  0  0  0  0  0  0  0  0  0
   -0.5736    3.6682   26.9369 C   0  0  0  0  0  0  0  0  0  0  0  0
   -1.6864    3.8292   26.1093 C   0  0  0  0  0  0  0  0  0  0  0  0
   -2.6040    2.8006   25.9405 C   0  0  0  0  0  0  0  0  0  0  0  0
   -2.4285    1.5744   26.5997 C   0  0  0  0  0  0  0  0  0  0  0  0
   -1.3349    1.3902   27.4656 C   0  0  0  0  0  0  0  0  0  0  0  0
    0.5372    0.3380   30.3644 C   0  0  0  0  0  0  0  0  0  0  0  0
   -0.2747   -0.3995   31.0600 N   0  0  0  0  0  0  0  0  0  0  0  0
  1  2  1  0
  2  3  2  0
  3  4  1  0
  3  5  1  0
  5  6  1  0
  6  7  1  0
  6  8  1  0
  6  9  1  0
  5 10  2  0
 10 11  1  0
 11 12  1  0
 12 13  1  1
 12 14  1  0
 14 15  2  0
 14 16  1  0
 16 17  1  0
 17 18  1  0
 18 19  2  0
 20 18  1  1
 20 21  1  0
 21 22  1  0
 22 23  2  0
 23 24  1  0
 24 25  1  0
 25 26  2  0
 26 27  1  0
 27 28  2  0
 28 29  1  0
 29 30  2  0
 23 31  1  0
 31 32  2  0
 11  2  1  0
 32 20  1  0
 30 22  1  0
 30 25  1  0
M  END
>  <name>  (104) 
P61141

>  <HIPPO Compound ID>  (104) 
98938

>  <energy_score>  (104) 
-25.619337

>  <HIPPO Pose ID>  (104) 
61141

>  <inspiration_score>  (104) 
None

>  <ref_pdb>  (104) 
7go7-a

>  <inchikey>  (104) 
NZYVHOSOYKMUNZ-YGRLFVJLSA-N

>  <alias>  (104) 
None

>  <distance_score>  (104) 
1.139862

>  <ref_mols>  (104) 
7goy-a,7gp2-a

>  <smiles>  (104) 
Cc1c(Cl)c(C(F)(F)F)nn1[C@H](C)C(=O)NNC(=O)[C@@H]1Cc2c([nH]c3ccccc23)C=N1

$$$$
P61145
     RDKit          3D

 32 35  0  0  0  0  0  0  0  0999 V2000
    2.1197    3.5178   24.9342 C   0  0  0  0  0  0  0  0  0  0  0  0
    2.5956    3.4711   26.3816 C   0  0  0  0  0  0  0  0  0  0  0  0
    1.8255    2.4730   27.2745 C   0  0  2  0  0  0  0  0  0  0  0  0
    2.3397    1.0272   27.0908 C   0  0  0  0  0  0  0  0  0  0  0  0
    1.3825    0.0422   27.5062 N   0  0  0  0  0  0  0  0  0  0  0  0
    1.4912   -1.0807   28.5646 C   0  0  0  0  0  0  0  0  0  0  0  0
    2.4004   -1.4278   29.2077 O   0  0  0  0  0  0  0  0  0  0  0  0
    0.0884   -1.6509   28.7317 C   0  0  0  0  0  0  0  0  0  0  0  0
   -0.9291   -0.6215   29.2281 C   0  0  0  0  0  0  0  0  0  0  0  0
   -0.8384   -0.3249   30.6994 C   0  0  0  0  0  0  0  0  0  0  0  0
    0.0968    0.4796   31.3520 C   0  0  0  0  0  0  0  0  0  0  0  0
    1.1578    1.4078   30.9827 C   0  0  0  0  0  0  0  0  0  0  0  0
    2.5011    1.0234   31.0297 C   0  0  0  0  0  0  0  0  0  0  0  0
    3.5192    1.9748   30.9123 C   0  0  0  0  0  0  0  0  0  0  0  0
    3.1937    3.3240   30.7917 C   0  0  0  0  0  0  0  0  0  0  0  0
    4.5659    4.6123   30.6343 Br  0  0  0  0  0  0  0  0  0  0  0  0
    1.8604    3.7291   30.7755 C   0  0  0  0  0  0  0  0  0  0  0  0
    0.8464    2.7699   30.8608 C   0  0  0  0  0  0  0  0  0  0  0  0
   -0.1452    0.3603   32.6944 N   0  0  0  0  0  0  0  0  0  0  0  0
   -1.3622   -0.2004   32.9207 C   0  0  0  0  0  0  0  0  0  0  0  0
   -2.0647   -0.2761   34.1210 C   0  0  0  0  0  0  0  0  0  0  0  0
   -3.3518   -0.7820   34.0861 C   0  0  0  0  0  0  0  0  0  0  0  0
   -3.8785   -1.2907   32.9066 C   0  0  0  0  0  0  0  0  0  0  0  0
   -5.3246   -1.6875   32.9003 C   0  0  0  0  0  0  0  0  0  0  0  0
   -3.0814   -1.3282   31.7360 C   0  0  0  0  0  0  0  0  0  0  0  0
   -1.8187   -0.6921   31.7073 C   0  0  0  0  0  0  0  0  0  0  0  0
    0.3783    2.7095   27.2151 N   0  0  0  0  0  0  0  0  0  0  0  0
   -0.2191    3.8686   27.6364 C   0  0  0  0  0  0  0  0  0  0  0  0
   -1.4756    3.8621   27.0982 C   0  0  0  0  0  0  0  0  0  0  0  0
   -2.6021    5.1027   27.0754 Cl  0  0  0  0  0  0  0  0  0  0  0  0
   -1.6136    2.6091   26.4958 C   0  0  0  0  0  0  0  0  0  0  0  0
   -0.4870    1.8909   26.5573 N   0  0  0  0  0  0  0  0  0  0  0  0
  1  2  1  0
  3  2  1  6
  3  4  1  0
  4  5  1  0
  5  6  1  0
  6  7  2  0
  6  8  1  0
  8  9  1  0
  9 10  1  0
 10 11  2  0
 11 12  1  0
 12 13  2  0
 13 14  1  0
 14 15  2  0
 15 16  1  0
 15 17  1  0
 17 18  2  0
 11 19  1  0
 19 20  1  0
 20 21  2  0
 21 22  1  0
 22 23  2  0
 23 24  1  0
 23 25  1  0
 25 26  2  0
  3 27  1  0
 27 28  1  0
 28 29  2  0
 29 30  1  0
 29 31  1  0
 31 32  2  0
 26 10  1  0
 32 27  1  0
 18 12  1  0
 26 20  1  0
M  END
>  <name>  (105) 
P61145

>  <HIPPO Compound ID>  (105) 
98941

>  <energy_score>  (105) 
-13.268413

>  <HIPPO Pose ID>  (105) 
61145

>  <inspiration_score>  (105) 
None

>  <ref_pdb>  (105) 
7go7-a

>  <inchikey>  (105) 
ZSZFQZXUIKVJCH-HXUWFJFHSA-N

>  <alias>  (105) 
None

>  <distance_score>  (105) 
1.98534

>  <ref_mols>  (105) 
7goy-a,7gp2-a

>  <smiles>  (105) 
CC[C@H](CNC(=O)CCc1c(-c2ccc(Br)cc2)[nH]c2ccc(C)cc12)n1cc(Cl)cn1

$$$$
P61146
     RDKit          3D

 32 35  0  0  0  0  0  0  0  0999 V2000
   -0.0072   -4.0532   28.8973 C   0  0  0  0  0  0  0  0  0  0  0  0
    0.4580   -3.0988   29.9618 C   0  0  0  0  0  0  0  0  0  0  0  0
    1.1183   -3.4505   30.9347 O   0  0  0  0  0  0  0  0  0  0  0  0
    0.1737   -1.7788   29.7138 N   0  0  0  0  0  0  0  0  0  0  0  0
    1.1050   -0.9988   28.8919 C   0  0  0  0  0  0  0  0  0  0  0  0
    0.3937    0.1686   28.2998 C   0  0  0  0  0  0  0  0  0  0  0  0
    0.9942    1.2089   27.6496 N   0  0  0  0  0  0  0  0  0  0  0  0
    0.0490    2.1234   27.2371 C   0  0  0  0  0  0  0  0  0  0  0  0
    0.2054    3.3291   26.5406 C   0  0  0  0  0  0  0  0  0  0  0  0
   -0.9419    4.0464   26.1922 C   0  0  0  0  0  0  0  0  0  0  0  0
   -2.2005    3.5830   26.5391 C   0  0  0  0  0  0  0  0  0  0  0  0
   -2.3335    2.3868   27.2545 C   0  0  0  0  0  0  0  0  0  0  0  0
   -1.1999    1.6352   27.6200 C   0  0  0  0  0  0  0  0  0  0  0  0
   -0.9557    0.4403   28.3534 C   0  0  0  0  0  0  0  0  0  0  0  0
   -1.8534   -0.4522   29.1201 C   0  0  0  0  0  0  0  0  0  0  0  0
   -1.0384   -1.1333   30.2519 C   0  0  1  0  0  0  0  0  0  0  0  0
   -2.0514   -1.9594   31.1096 C   0  0  0  0  0  0  0  0  0  0  0  0
   -2.2200   -3.1143   31.0230 O   0  0  0  0  0  0  0  0  0  0  0  0
   -2.7996   -0.8880   31.9709 N   0  0  0  0  0  0  0  0  0  0  0  0
   -3.7647   -1.0312   32.8945 N   0  0  0  0  0  0  0  0  0  0  0  0
   -4.7906    0.0046   33.4575 C   0  0  0  0  0  0  0  0  0  0  0  0
   -4.9970    1.1133   33.1447 O   0  0  0  0  0  0  0  0  0  0  0  0
   -5.5299   -0.7058   34.5885 C   0  0  0  0  0  0  0  0  0  0  0  0
   -6.7962   -0.0854   34.9720 N   0  0  0  0  0  0  0  0  0  0  0  0
   -7.0467    1.2311   35.2486 C   0  0  0  0  0  0  0  0  0  0  0  0
   -8.3756    1.3179   35.5956 C   0  0  0  0  0  0  0  0  0  0  0  0
   -9.2307    2.7227   35.9974 Cl  0  0  0  0  0  0  0  0  0  0  0  0
   -8.8258   -0.0124   35.5830 C   0  0  0  0  0  0  0  0  0  0  0  0
  -10.1288   -0.5495   35.8951 N   0  0  0  0  0  0  0  0  0  0  0  0
  -10.1616   -1.6602   36.4459 O   0  0  0  0  0  0  0  0  0  0  0  0
  -11.1204    0.1342   35.5986 O   0  0  0  0  0  0  0  0  0  0  0  0
   -7.8542   -0.8850   35.2405 N   0  0  0  0  0  0  0  0  0  0  0  0
  1  2  1  0
  2  3  2  0
  2  4  1  0
  4  5  1  0
  5  6  1  0
  6  7  1  0
  7  8  1  0
  8  9  2  0
  9 10  1  0
 10 11  2  0
 11 12  1  0
 12 13  2  0
 13 14  1  0
 14 15  1  0
 15 16  1  0
 16 17  1  6
 17 18  2  0
 17 19  1  0
 19 20  1  0
 20 21  1  0
 21 22  2  0
 21 23  1  0
 23 24  1  0
 24 25  1  0
 25 26  2  0
 26 27  1  0
 26 28  1  0
 28 29  1  0
 29 30  2  0
 29 31  1  0
 28 32  2  0
 16  4  1  0
 32 24  1  0
 14  6  2  0
 13  8  1  0
M  CHG  2  29   1  31  -1
M  END
>  <name>  (106) 
P61146

>  <HIPPO Compound ID>  (106) 
98948

>  <energy_score>  (106) 
-7.174065

>  <HIPPO Pose ID>  (106) 
61146

>  <inspiration_score>  (106) 
None

>  <ref_pdb>  (106) 
7go7-a

>  <inchikey>  (106) 
YRAHAEAGXVHRCX-INIZCTEOSA-N

>  <alias>  (106) 
None

>  <distance_score>  (106) 
1.72356

>  <ref_mols>  (106) 
7goy-a,7gp2-a

>  <smiles>  (106) 
CC(=O)N1Cc2[nH]c3ccccc3c2C[C@H]1C(=O)NNC(=O)Cn1cc(Cl)c([N+](=O)[O-])n1

$$$$
P61147
     RDKit          3D

 32 35  0  0  0  0  0  0  0  0999 V2000
    7.3000    1.1151   28.0026 C   0  0  0  0  0  0  0  0  0  0  0  0
    6.1696    0.5087   28.6175 O   0  0  0  0  0  0  0  0  0  0  0  0
    4.9463    1.0349   28.3062 C   0  0  0  0  0  0  0  0  0  0  0  0
    3.8676    0.4306   28.9498 C   0  0  0  0  0  0  0  0  0  0  0  0
    2.5598    0.8693   28.7172 C   0  0  0  0  0  0  0  0  0  0  0  0
    2.3003    1.9189   27.8353 C   0  0  0  0  0  0  0  0  0  0  0  0
    0.9376    2.3890   27.5622 C   0  0  0  0  0  0  0  0  0  0  0  0
   -0.1134    1.5444   27.3305 N   0  0  0  0  0  0  0  0  0  0  0  0
   -1.2164    2.2378   26.9146 C   0  0  0  0  0  0  0  0  0  0  0  0
   -2.4649    1.7773   26.5105 C   0  0  0  0  0  0  0  0  0  0  0  0
   -3.3742    2.7162   26.0240 C   0  0  0  0  0  0  0  0  0  0  0  0
   -3.0437    4.0635   25.9661 C   0  0  0  0  0  0  0  0  0  0  0  0
   -1.8267    4.5220   26.4664 C   0  0  0  0  0  0  0  0  0  0  0  0
   -0.8892    3.5849   26.9345 C   0  0  0  0  0  0  0  0  0  0  0  0
    0.4072    3.6721   27.5188 C   0  0  0  0  0  0  0  0  0  0  0  0
    1.0572    4.9236   28.0265 C   0  0  0  0  0  0  0  0  0  0  0  0
    0.4682    5.3440   29.3723 C   0  0  0  0  0  0  0  0  0  0  0  0
    1.0433    4.6037   30.5826 C   0  0  0  0  0  0  0  0  0  0  0  0
    1.8416    5.1037   31.2742 O   0  0  0  0  0  0  0  0  0  0  0  0
    0.3131    3.2388   30.7122 N   0  0  0  0  0  0  0  0  0  0  0  0
    0.4867    2.1680   31.6696 C   0  0  0  0  0  0  0  0  0  0  0  0
   -0.7851    1.3860   32.0038 C   0  0  0  0  0  0  0  0  0  0  0  0
   -1.0036    0.1680   31.2416 N   0  0  0  0  0  0  0  0  0  0  0  0
   -0.6681    0.1002   29.9392 N   0  0  0  0  0  0  0  0  0  0  0  0
   -0.7204   -1.2105   29.6579 C   0  0  0  0  0  0  0  0  0  0  0  0
   -0.3373   -1.7108   28.3183 C   0  0  0  0  0  0  0  0  0  0  0  0
   -1.1773   -1.9473   30.7663 C   0  0  0  0  0  0  0  0  0  0  0  0
   -1.2694   -3.6264   30.9255 Cl  0  0  0  0  0  0  0  0  0  0  0  0
   -1.5278   -1.0117   31.7096 C   0  0  0  0  0  0  0  0  0  0  0  0
   -2.2266   -1.1762   33.0028 C   0  0  0  0  0  0  0  0  0  0  0  0
    3.3889    2.5145   27.1859 C   0  0  0  0  0  0  0  0  0  0  0  0
    4.7022    2.0857   27.4253 C   0  0  0  0  0  0  0  0  0  0  0  0
  1  2  1  0
  2  3  1  0
  3  4  2  0
  4  5  1  0
  5  6  2  0
  6  7  1  0
  7  8  1  0
  8  9  1  0
  9 10  2  0
 10 11  1  0
 11 12  2  0
 12 13  1  0
 13 14  2  0
 14 15  1  0
 15 16  1  0
 16 17  1  0
 17 18  1  0
 18 19  2  0
 18 20  1  0
 20 21  1  0
 21 22  1  0
 22 23  1  0
 23 24  1  0
 24 25  2  0
 25 26  1  0
 25 27  1  0
 27 28  1  0
 27 29  2  0
 29 30  1  0
  6 31  1  0
 31 32  2  0
 32  3  1  0
 15  7  2  0
 29 23  1  0
 14  9  1  0
M  END
>  <name>  (107) 
P61147

>  <HIPPO Compound ID>  (107) 
98956

>  <energy_score>  (107) 
-22.013593

>  <HIPPO Pose ID>  (107) 
61147

>  <inspiration_score>  (107) 
None

>  <ref_pdb>  (107) 
7go7-a

>  <inchikey>  (107) 
CXODURDDEDZNPM-UHFFFAOYSA-N

>  <alias>  (107) 
None

>  <distance_score>  (107) 
1.677631

>  <ref_mols>  (107) 
7goy-a,7gp2-a

>  <smiles>  (107) 
COc1ccc(-c2[nH]c3ccccc3c2CCC(=O)NCCn2nc(C)c(Cl)c2C)cc1

$$$$
P61149
     RDKit          3D

 32 34  0  0  0  0  0  0  0  0999 V2000
    1.0887    0.9853   32.7880 C   0  0  0  0  0  0  0  0  0  0  0  0
   -0.4246    0.8166   32.8711 C   0  0  0  0  0  0  0  0  0  0  0  0
   -1.1345    0.5301   31.5360 C   0  0  1  0  0  0  0  0  0  0  0  0
   -1.1792    1.7329   30.5862 C   0  0  0  0  0  0  0  0  0  0  0  0
   -0.6771    2.7585   30.8676 O   0  0  0  0  0  0  0  0  0  0  0  0
   -2.0620    1.3348   29.3367 N   0  0  0  0  0  0  0  0  0  0  0  0
   -2.3899    2.0458   28.2298 N   0  0  0  0  0  0  0  0  0  0  0  0
   -2.7860    1.5692   26.8069 C   0  0  0  0  0  0  0  0  0  0  0  0
   -2.8157    0.4955   26.3501 O   0  0  0  0  0  0  0  0  0  0  0  0
   -3.0974    2.8286   25.9774 C   0  0  0  0  0  0  0  0  0  0  0  0
   -1.8403    3.2468   25.1827 C   0  0  2  0  0  0  0  0  0  0  0  0
   -0.7398    3.4428   26.1923 C   0  0  0  0  0  0  0  0  0  0  0  0
    0.0794    2.4272   26.6581 C   0  0  0  0  0  0  0  0  0  0  0  0
    0.7123    2.8563   27.7871 N   0  0  0  0  0  0  0  0  0  0  0  0
    0.4175    4.1780   27.9984 C   0  0  0  0  0  0  0  0  0  0  0  0
    0.8565    5.0279   29.0132 C   0  0  0  0  0  0  0  0  0  0  0  0
    0.4142    6.3516   29.0033 C   0  0  0  0  0  0  0  0  0  0  0  0
   -0.4773    6.7837   28.0305 C   0  0  0  0  0  0  0  0  0  0  0  0
   -1.0759    8.5821   28.0411 Br  0  0  0  0  0  0  0  0  0  0  0  0
   -0.9594    5.9085   27.0507 C   0  0  0  0  0  0  0  0  0  0  0  0
   -0.4784    4.5845   27.0076 C   0  0  0  0  0  0  0  0  0  0  0  0
   -2.0662    4.4214   24.1922 C   0  0  0  0  0  0  0  0  0  0  0  0
   -0.7850    4.7457   23.4100 C   0  0  0  0  0  0  0  0  0  0  0  0
   -3.1866    4.1415   23.1871 C   0  0  0  0  0  0  0  0  0  0  0  0
   -0.5786   -0.5987   30.8281 N   0  0  0  0  0  0  0  0  0  0  0  0
    0.3448   -0.3402   29.8928 N   0  0  0  0  0  0  0  0  0  0  0  0
    0.3678   -1.4422   29.1461 C   0  0  0  0  0  0  0  0  0  0  0  0
    1.1595   -1.4326   27.9019 C   0  0  0  0  0  0  0  0  0  0  0  0
   -0.4110   -2.4646   29.7290 C   0  0  0  0  0  0  0  0  0  0  0  0
   -0.5013   -4.0615   29.1770 Cl  0  0  0  0  0  0  0  0  0  0  0  0
   -1.0427   -1.8849   30.8125 C   0  0  0  0  0  0  0  0  0  0  0  0
   -2.0257   -2.4084   31.7905 C   0  0  0  0  0  0  0  0  0  0  0  0
  1  2  1  0
  3  2  1  1
  3  4  1  0
  4  5  2  0
  4  6  1  0
  6  7  1  0
  7  8  1  0
  8  9  2  0
  8 10  1  0
 11 10  1  1
 11 12  1  0
 12 13  2  0
 13 14  1  0
 14 15  1  0
 15 16  2  0
 16 17  1  0
 17 18  2  0
 18 19  1  0
 18 20  1  0
 20 21  2  0
 11 22  1  0
 22 23  1  0
 22 24  1  0
  3 25  1  0
 25 26  1  0
 26 27  2  0
 27 28  1  0
 27 29  1  0
 29 30  1  0
 29 31  2  0
 31 32  1  0
 21 12  1  0
 31 25  1  0
 21 15  1  0
M  END
>  <name>  (108) 
P61149

>  <HIPPO Compound ID>  (108) 
98994

>  <energy_score>  (108) 
-9.738372

>  <HIPPO Pose ID>  (108) 
61149

>  <inspiration_score>  (108) 
None

>  <ref_pdb>  (108) 
7go7-a

>  <inchikey>  (108) 
WYWUZIQRJFFVIP-JXFKEZNVSA-N

>  <alias>  (108) 
None

>  <distance_score>  (108) 
1.861757

>  <ref_mols>  (108) 
7goy-a,7gp2-a

>  <smiles>  (108) 
CC[C@@H](C(=O)NNC(=O)C[C@H](c1c[nH]c2ccc(Br)cc12)C(C)C)n1nc(C)c(Cl)c1C

$$$$
P61150
     RDKit          3D

 32 34  0  0  0  0  0  0  0  0999 V2000
   -3.3676   -1.1703   32.2829 C   0  0  0  0  0  0  0  0  0  0  0  0
   -2.0328   -0.7903   31.7721 C   0  0  0  0  0  0  0  0  0  0  0  0
   -1.3947    0.2698   32.2986 N   0  0  0  0  0  0  0  0  0  0  0  0
   -0.1618    0.2088   31.7511 N   0  0  0  0  0  0  0  0  0  0  0  0
    0.8650    1.1622   32.1827 C   0  0  0  0  0  0  0  0  0  0  0  0
    2.0354    1.0980   31.2279 C   0  0  0  0  0  0  0  0  0  0  0  0
    3.0926    0.6840   31.5066 O   0  0  0  0  0  0  0  0  0  0  0  0
    1.4708    1.5860   29.8600 N   0  0  0  0  0  0  0  0  0  0  0  0
    2.0149    1.5734   28.6503 N   0  0  0  0  0  0  0  0  0  0  0  0
    2.9856    2.5628   27.9793 C   0  0  0  0  0  0  0  0  0  0  0  0
    3.5221    3.5057   28.4095 O   0  0  0  0  0  0  0  0  0  0  0  0
    3.0791    2.1577   26.5009 C   0  0  2  0  0  0  0  0  0  0  0  0
    1.8835    2.6344   25.6452 C   0  0  0  0  0  0  0  0  0  0  0  0
    0.4996    2.7136   26.2441 C   0  0  0  0  0  0  0  0  0  0  0  0
   -0.3250    1.7448   26.7946 C   0  0  0  0  0  0  0  0  0  0  0  0
   -1.4579    2.3548   27.2661 N   0  0  0  0  0  0  0  0  0  0  0  0
   -1.3917    3.7001   27.0105 C   0  0  0  0  0  0  0  0  0  0  0  0
   -2.2692    4.7353   27.3105 C   0  0  0  0  0  0  0  0  0  0  0  0
   -1.9059    6.0414   26.9609 C   0  0  0  0  0  0  0  0  0  0  0  0
   -0.7642    6.3052   26.2324 C   0  0  0  0  0  0  0  0  0  0  0  0
    0.0721    5.2546   25.8883 C   0  0  0  0  0  0  0  0  0  0  0  0
   -0.2153    3.9426   26.3202 C   0  0  0  0  0  0  0  0  0  0  0  0
    3.5592    0.8559   25.9836 N   0  0  0  0  0  0  0  0  0  0  0  0
    3.4313   -0.5933   26.7600 S   0  0  0  0  0  0  0  0  0  0  0  0
    3.8989   -1.6056   25.8599 O   0  0  0  0  0  0  0  0  0  0  0  0
    2.1120   -0.6414   27.3491 O   0  0  0  0  0  0  0  0  0  0  0  0
    4.5634   -0.3531   27.9828 N   0  0  0  0  0  0  0  0  0  0  0  0
    5.9620   -0.2444   27.5059 C   0  0  0  0  0  0  0  0  0  0  0  0
    4.4606   -1.3391   29.0800 C   0  0  0  0  0  0  0  0  0  0  0  0
   -0.0574   -0.7737   30.8042 C   0  0  0  0  0  0  0  0  0  0  0  0
   -1.2568   -1.4240   30.7820 C   0  0  0  0  0  0  0  0  0  0  0  0
   -1.6387   -2.7455   29.8176 Cl  0  0  0  0  0  0  0  0  0  0  0  0
  1  2  1  0
  2  3  2  0
  3  4  1  0
  4  5  1  0
  5  6  1  0
  6  7  2  0
  6  8  1  0
  8  9  1  0
  9 10  1  0
 10 11  2  0
 10 12  1  0
 12 13  1  1
 13 14  1  0
 14 15  2  0
 15 16  1  0
 16 17  1  0
 17 18  2  0
 18 19  1  0
 19 20  2  0
 20 21  1  0
 21 22  2  0
 12 23  1  0
 23 24  1  0
 24 25  2  0
 24 26  2  0
 24 27  1  0
 27 28  1  0
 27 29  1  0
  4 30  1  0
 30 31  2  0
 31 32  1  0
 31  2  1  0
 22 14  1  0
 22 17  1  0
M  END
>  <name>  (109) 
P61150

>  <HIPPO Compound ID>  (109) 
99008

>  <energy_score>  (109) 
-30.28251

>  <HIPPO Pose ID>  (109) 
61150

>  <inspiration_score>  (109) 
None

>  <ref_pdb>  (109) 
7go7-a

>  <inchikey>  (109) 
NLUISZRIWBVJSV-KRWDZBQOSA-N

>  <alias>  (109) 
None

>  <distance_score>  (109) 
1.791755

>  <ref_mols>  (109) 
7goy-a,7gp2-a

>  <smiles>  (109) 
Cc1nn(CC(=O)NNC(=O)[C@H](Cc2c[nH]c3ccccc23)NS(=O)(=O)N(C)C)cc1Cl

$$$$
P61151
     RDKit          3D

 32 35  0  0  0  0  0  0  0  0999 V2000
   -0.9980    6.3684   25.7385 C   0  0  0  0  0  0  0  0  0  0  0  0
   -1.7237    5.0530   25.8206 C   0  0  0  0  0  0  0  0  0  0  0  0
   -2.8592    4.8829   25.0079 C   0  0  0  0  0  0  0  0  0  0  0  0
   -3.6295    3.7320   25.0685 C   0  0  0  0  0  0  0  0  0  0  0  0
   -3.2829    2.6843   25.9140 C   0  0  0  0  0  0  0  0  0  0  0  0
   -2.1202    2.8182   26.6715 C   0  0  0  0  0  0  0  0  0  0  0  0
   -1.5470    1.9284   27.5443 N   0  0  0  0  0  0  0  0  0  0  0  0
   -0.3929    2.4527   28.0465 C   0  0  0  0  0  0  0  0  0  0  0  0
   -0.2378    3.7433   27.5701 C   0  0  0  0  0  0  0  0  0  0  0  0
    0.9147    4.6560   27.8993 C   0  0  0  0  0  0  0  0  0  0  0  0
    0.8580    5.3458   29.2745 C   0  0  0  0  0  0  0  0  0  0  0  0
    0.5423    4.4028   30.4336 C   0  0  0  0  0  0  0  0  0  0  0  0
   -0.3997    4.5323   31.1099 O   0  0  0  0  0  0  0  0  0  0  0  0
    1.6171    3.2855   30.4116 N   0  0  0  0  0  0  0  0  0  0  0  0
    1.6931    2.1440   31.0969 N   0  0  0  0  0  0  0  0  0  0  0  0
    2.7079    0.9707   30.9934 C   0  0  0  0  0  0  0  0  0  0  0  0
    3.6747    0.8610   30.3468 O   0  0  0  0  0  0  0  0  0  0  0  0
    2.1563   -0.1457   31.8531 C   0  0  0  0  0  0  0  0  0  0  0  0
    0.8511   -0.5727   31.3559 N   0  0  0  0  0  0  0  0  0  0  0  0
   -0.1980   -0.5427   32.2038 N   0  0  0  0  0  0  0  0  0  0  0  0
   -1.2221   -1.0592   31.4903 C   0  0  0  0  0  0  0  0  0  0  0  0
   -2.5581   -1.3616   32.0939 C   0  0  0  0  0  0  0  0  0  0  0  0
   -2.6351   -1.0826   33.4207 F   0  0  0  0  0  0  0  0  0  0  0  0
   -2.8850   -2.6757   31.9430 F   0  0  0  0  0  0  0  0  0  0  0  0
   -3.5469   -0.6381   31.5076 F   0  0  0  0  0  0  0  0  0  0  0  0
   -0.8373   -1.2733   30.1440 C   0  0  0  0  0  0  0  0  0  0  0  0
   -1.8087   -1.8124   28.8741 Cl  0  0  0  0  0  0  0  0  0  0  0  0
    0.5014   -0.9742   30.0963 C   0  0  0  0  0  0  0  0  0  0  0  0
    1.4182   -1.0718   28.8468 C   0  0  0  0  0  0  0  0  0  0  0  0
    2.7015   -1.8612   28.9538 C   0  0  0  0  0  0  0  0  0  0  0  0
    1.5696   -2.3867   28.1319 C   0  0  0  0  0  0  0  0  0  0  0  0
   -1.3299    3.9739   26.6587 C   0  0  0  0  0  0  0  0  0  0  0  0
  1  2  1  0
  2  3  2  0
  3  4  1  0
  4  5  2  0
  5  6  1  0
  6  7  1  0
  7  8  1  0
  8  9  2  0
  9 10  1  0
 10 11  1  0
 11 12  1  0
 12 13  2  0
 12 14  1  0
 14 15  1  0
 15 16  1  0
 16 17  2  0
 16 18  1  0
 18 19  1  0
 19 20  1  0
 20 21  2  0
 21 22  1  0
 22 23  1  0
 22 24  1  0
 22 25  1  0
 21 26  1  0
 26 27  1  0
 26 28  2  0
 28 29  1  0
 29 30  1  0
 30 31  1  0
  9 32  1  0
 32  2  1  0
 32  6  2  0
 28 19  1  0
 31 29  1  0
M  END
>  <name>  (110) 
P61151

>  <HIPPO Compound ID>  (110) 
99012

>  <energy_score>  (110) 
-4.857381

>  <HIPPO Pose ID>  (110) 
61151

>  <inspiration_score>  (110) 
None

>  <ref_pdb>  (110) 
7go7-a

>  <inchikey>  (110) 
WPQDQZWDRPJUFD-UHFFFAOYSA-N

>  <alias>  (110) 
None

>  <distance_score>  (110) 
1.833862

>  <ref_mols>  (110) 
7goy-a,7gp2-a

>  <smiles>  (110) 
Cc1cccc2[nH]cc(CCC(=O)NNC(=O)Cn3nc(C(F)(F)F)c(Cl)c3C3CC3)c12

$$$$
P61152
     RDKit          3D

 33 35  0  0  0  0  0  0  0  0999 V2000
    3.5762    7.0000   25.6369 C   0  0  0  0  0  0  0  0  0  0  0  0
    3.4439    6.5532   27.0431 N   0  0  0  0  0  0  0  0  0  0  0  0
    3.4845    7.7094   27.9707 C   0  0  0  0  0  0  0  0  0  0  0  0
    4.4840    5.2947   27.5071 S   0  0  0  0  0  0  0  0  0  0  0  0
    5.7779    5.5557   26.9294 O   0  0  0  0  0  0  0  0  0  0  0  0
    4.2891    5.0492   28.9146 O   0  0  0  0  0  0  0  0  0  0  0  0
    3.7845    4.0514   26.6552 N   0  0  0  0  0  0  0  0  0  0  0  0
    2.4712    3.5723   27.1325 C   0  0  1  0  0  0  0  0  0  0  0  0
    1.7170    2.8498   26.0067 C   0  0  0  0  0  0  0  0  0  0  0  0
    0.2849    2.5410   26.3638 C   0  0  0  0  0  0  0  0  0  0  0  0
   -0.1616    1.4423   27.0727 C   0  0  0  0  0  0  0  0  0  0  0  0
   -1.5158    1.5194   27.2012 N   0  0  0  0  0  0  0  0  0  0  0  0
   -1.9716    2.5841   26.4671 C   0  0  0  0  0  0  0  0  0  0  0  0
   -3.2725    2.9656   26.1588 C   0  0  0  0  0  0  0  0  0  0  0  0
   -3.4461    4.0275   25.2688 C   0  0  0  0  0  0  0  0  0  0  0  0
   -2.3698    4.7620   24.7952 C   0  0  0  0  0  0  0  0  0  0  0  0
   -1.0741    4.4010   25.1519 C   0  0  0  0  0  0  0  0  0  0  0  0
   -0.8685    3.2649   25.9589 C   0  0  0  0  0  0  0  0  0  0  0  0
    2.6705    2.5495   28.2845 C   0  0  0  0  0  0  0  0  0  0  0  0
    3.3797    1.6254   28.1924 O   0  0  0  0  0  0  0  0  0  0  0  0
    1.7019    2.9645   29.4257 N   0  0  0  0  0  0  0  0  0  0  0  0
    1.3394    2.2796   30.6397 C   0  0  0  0  0  0  0  0  0  0  0  0
   -0.1569    1.9741   30.6394 C   0  0  0  0  0  0  0  0  0  0  0  0
   -0.5389    0.5828   30.7072 N   0  0  0  0  0  0  0  0  0  0  0  0
   -0.0513   -0.4732   30.0030 C   0  0  0  0  0  0  0  0  0  0  0  0
   -0.8008   -1.5602   30.3751 C   0  0  0  0  0  0  0  0  0  0  0  0
   -0.6219   -3.1553   29.8398 Cl  0  0  0  0  0  0  0  0  0  0  0  0
   -1.6991   -1.0780   31.3535 C   0  0  0  0  0  0  0  0  0  0  0  0
   -2.6275   -1.8987   32.1837 C   0  0  0  0  0  0  0  0  0  0  0  0
   -3.3026   -1.1681   33.1099 F   0  0  0  0  0  0  0  0  0  0  0  0
   -1.9526   -2.8719   32.8442 F   0  0  0  0  0  0  0  0  0  0  0  0
   -3.5674   -2.5334   31.4268 F   0  0  0  0  0  0  0  0  0  0  0  0
   -1.5824    0.2582   31.4946 N   0  0  0  0  0  0  0  0  0  0  0  0
  1  2  1  0
  2  3  1  0
  2  4  1  0
  4  5  2  0
  4  6  2  0
  4  7  1  0
  7  8  1  0
  8  9  1  6
  9 10  1  0
 10 11  2  0
 11 12  1  0
 12 13  1  0
 13 14  2  0
 14 15  1  0
 15 16  2  0
 16 17  1  0
 17 18  2  0
  8 19  1  0
 19 20  2  0
 19 21  1  0
 21 22  1  0
 22 23  1  0
 23 24  1  0
 24 25  1  0
 25 26  2  0
 26 27  1  0
 26 28  1  0
 28 29  1  0
 29 30  1  0
 29 31  1  0
 29 32  1  0
 28 33  2  0
 18 10  1  0
 33 24  1  0
 18 13  1  0
M  END
>  <name>  (111) 
P61152

>  <HIPPO Compound ID>  (111) 
99028

>  <energy_score>  (111) 
-40.219881

>  <HIPPO Pose ID>  (111) 
61152

>  <inspiration_score>  (111) 
None

>  <ref_pdb>  (111) 
7go7-a

>  <inchikey>  (111) 
SLOKHTRVEFFERU-INIZCTEOSA-N

>  <alias>  (111) 
None

>  <distance_score>  (111) 
1.583145

>  <ref_mols>  (111) 
7goy-a,7gp2-a

>  <smiles>  (111) 
CN(C)S(=O)(=O)N[C@@H](Cc1c[nH]c2ccccc12)C(=O)NCCn1cc(Cl)c(C(F)(F)F)n1

$$$$
P61153
     RDKit          3D

 33 36  0  0  0  0  0  0  0  0999 V2000
   -3.3114    4.3563   25.4701 C   0  0  0  0  0  0  0  0  0  0  0  0
   -2.4332    3.1935   25.8740 C   0  0  0  0  0  0  0  0  0  0  0  0
   -0.9857    3.6465   26.0947 C   0  0  2  0  0  0  0  0  0  0  0  0
    0.0366    2.5304   25.9007 C   0  0  0  0  0  0  0  0  0  0  0  0
   -0.1693    1.3705   26.7435 N   0  0  0  0  0  0  0  0  0  0  0  0
   -1.4062    0.4401   26.8959 C   0  0  0  0  0  0  0  0  0  0  0  0
   -2.4162    0.4221   26.3097 O   0  0  0  0  0  0  0  0  0  0  0  0
   -1.1235   -0.4839   28.0443 C   0  0  0  0  0  0  0  0  0  0  0  0
   -1.2610    0.3531   29.2950 C   0  0  0  0  0  0  0  0  0  0  0  0
   -0.9130   -0.3814   30.5310 C   0  0  0  0  0  0  0  0  0  0  0  0
    0.3393   -0.8899   30.8458 C   0  0  0  0  0  0  0  0  0  0  0  0
    1.6204   -0.8306   30.1463 C   0  0  0  0  0  0  0  0  0  0  0  0
    2.3244   -2.0069   29.8559 C   0  0  0  0  0  0  0  0  0  0  0  0
    3.5502   -1.9460   29.1914 C   0  0  0  0  0  0  0  0  0  0  0  0
    4.0678   -0.7143   28.8111 C   0  0  0  0  0  0  0  0  0  0  0  0
    5.2448   -0.6643   28.1737 F   0  0  0  0  0  0  0  0  0  0  0  0
    3.3856    0.4630   29.0899 C   0  0  0  0  0  0  0  0  0  0  0  0
    2.1631    0.4050   29.7623 C   0  0  0  0  0  0  0  0  0  0  0  0
    0.2107   -1.5214   32.0548 N   0  0  0  0  0  0  0  0  0  0  0  0
   -1.0474   -1.3541   32.5668 C   0  0  0  0  0  0  0  0  0  0  0  0
   -1.5707   -1.7678   33.7897 C   0  0  0  0  0  0  0  0  0  0  0  0
   -2.8706   -1.3754   34.1181 C   0  0  0  0  0  0  0  0  0  0  0  0
   -3.6417   -0.6296   33.2402 C   0  0  0  0  0  0  0  0  0  0  0  0
   -4.9235   -0.2068   33.4786 O   0  0  0  0  0  0  0  0  0  0  0  0
   -5.5378   -0.6531   34.6846 C   0  0  0  0  0  0  0  0  0  0  0  0
   -3.0924   -0.2451   32.0043 C   0  0  0  0  0  0  0  0  0  0  0  0
   -1.7757   -0.6173   31.6470 C   0  0  0  0  0  0  0  0  0  0  0  0
   -0.7594    4.2940   27.3767 N   0  0  0  0  0  0  0  0  0  0  0  0
   -0.5077    5.6210   27.5359 C   0  0  0  0  0  0  0  0  0  0  0  0
    0.0046    5.7472   28.8006 C   0  0  0  0  0  0  0  0  0  0  0  0
    0.5691    7.1474   29.5643 Cl  0  0  0  0  0  0  0  0  0  0  0  0
   -0.0166    4.4544   29.3439 C   0  0  0  0  0  0  0  0  0  0  0  0
   -0.5031    3.5598   28.4848 N   0  0  0  0  0  0  0  0  0  0  0  0
  1  2  1  0
  3  2  1  1
  3  4  1  0
  4  5  1  0
  5  6  1  0
  6  7  2  0
  6  8  1  0
  8  9  1  0
  9 10  1  0
 10 11  2  0
 11 12  1  0
 12 13  2  0
 13 14  1  0
 14 15  2  0
 15 16  1  0
 15 17  1  0
 17 18  2  0
 11 19  1  0
 19 20  1  0
 20 21  2  0
 21 22  1  0
 22 23  2  0
 23 24  1  0
 24 25  1  0
 23 26  1  0
 26 27  2  0
  3 28  1  0
 28 29  1  0
 29 30  2  0
 30 31  1  0
 30 32  1  0
 32 33  2  0
 27 10  1  0
 33 28  1  0
 18 12  1  0
 27 20  1  0
M  END
>  <name>  (112) 
P61153

>  <HIPPO Compound ID>  (112) 
99048

>  <energy_score>  (112) 
-38.512909

>  <HIPPO Pose ID>  (112) 
61153

>  <inspiration_score>  (112) 
None

>  <ref_pdb>  (112) 
7go7-a

>  <inchikey>  (112) 
MOEHPFAJNNTLRW-LJQANCHMSA-N

>  <alias>  (112) 
None

>  <distance_score>  (112) 
1.986778

>  <ref_mols>  (112) 
7goy-a,7gp2-a

>  <smiles>  (112) 
CC[C@H](CNC(=O)CCc1c(-c2ccc(F)cc2)[nH]c2ccc(OC)cc12)n1cc(Cl)cn1

$$$$
P61154
     RDKit          3D

 33 36  0  0  0  0  0  0  0  0999 V2000
    1.1674    5.0475   29.0065 O   0  0  0  0  0  0  0  0  0  0  0  0
    1.6941    4.0147   28.8842 C   0  0  0  0  0  0  0  0  0  0  0  0
    2.3150    3.5868   27.5625 C   0  0  0  0  0  0  0  0  0  0  0  0
    1.7574    2.2930   26.9736 C   0  0  0  0  0  0  0  0  0  0  0  0
    0.2597    2.1054   27.0222 C   0  0  0  0  0  0  0  0  0  0  0  0
   -0.4625    0.9792   27.4570 C   0  0  0  0  0  0  0  0  0  0  0  0
   -0.0932   -0.3970   27.8804 C   0  0  0  0  0  0  0  0  0  0  0  0
    1.1822   -0.9388   27.6696 C   0  0  0  0  0  0  0  0  0  0  0  0
    1.4965   -2.2573   28.0227 C   0  0  0  0  0  0  0  0  0  0  0  0
    0.5244   -3.0861   28.5614 C   0  0  0  0  0  0  0  0  0  0  0  0
   -0.7586   -2.5933   28.7461 C   0  0  0  0  0  0  0  0  0  0  0  0
   -1.0583   -1.2647   28.4241 C   0  0  0  0  0  0  0  0  0  0  0  0
   -1.7900    1.3416   27.3599 N   0  0  0  0  0  0  0  0  0  0  0  0
   -1.9410    2.5187   26.6897 C   0  0  0  0  0  0  0  0  0  0  0  0
   -3.0936    3.1253   26.2035 C   0  0  0  0  0  0  0  0  0  0  0  0
   -4.2864    2.5316   26.3398 F   0  0  0  0  0  0  0  0  0  0  0  0
   -2.9843    4.3055   25.4799 C   0  0  0  0  0  0  0  0  0  0  0  0
   -1.7445    4.8967   25.2931 C   0  0  0  0  0  0  0  0  0  0  0  0
   -0.5928    4.2793   25.7910 C   0  0  0  0  0  0  0  0  0  0  0  0
   -0.6832    3.0499   26.4829 C   0  0  0  0  0  0  0  0  0  0  0  0
    1.9052    2.8697   29.9042 N   0  0  0  0  0  0  0  0  0  0  0  0
    1.4294    2.7218   31.2537 C   0  0  0  0  0  0  0  0  0  0  0  0
   -0.0515    2.3460   31.2761 C   0  0  0  0  0  0  0  0  0  0  0  0
   -0.3769    0.9292   31.3023 N   0  0  0  0  0  0  0  0  0  0  0  0
    0.4623   -0.1413   31.2754 C   0  0  0  0  0  0  0  0  0  0  0  0
   -0.2723   -1.2126   31.7194 C   0  0  0  0  0  0  0  0  0  0  0  0
    0.3170   -2.7599   32.0885 Cl  0  0  0  0  0  0  0  0  0  0  0  0
   -1.5918   -0.7346   31.8664 C   0  0  0  0  0  0  0  0  0  0  0  0
   -2.7709   -1.5108   32.3522 C   0  0  0  0  0  0  0  0  0  0  0  0
   -3.9396   -1.0880   31.7993 F   0  0  0  0  0  0  0  0  0  0  0  0
   -2.6877   -2.8385   32.0551 F   0  0  0  0  0  0  0  0  0  0  0  0
   -2.9216   -1.3940   33.6936 F   0  0  0  0  0  0  0  0  0  0  0  0
   -1.6574    0.5830   31.5725 N   0  0  0  0  0  0  0  0  0  0  0  0
  1  2  2  0
  2  3  1  0
  3  4  1  0
  4  5  1  0
  5  6  2  0
  6  7  1  0
  7  8  2  0
  8  9  1  0
  9 10  2  0
 10 11  1  0
 11 12  2  0
  6 13  1  0
 13 14  1  0
 14 15  2  0
 15 16  1  0
 15 17  1  0
 17 18  2  0
 18 19  1  0
 19 20  2  0
  2 21  1  0
 21 22  1  0
 22 23  1  0
 23 24  1  0
 24 25  1  0
 25 26  2  0
 26 27  1  0
 26 28  1  0
 28 29  1  0
 29 30  1  0
 29 31  1  0
 29 32  1  0
 28 33  2  0
 20  5  1  0
 33 24  1  0
 12  7  1  0
 20 14  1  0
M  END
>  <name>  (113) 
P61154

>  <HIPPO Compound ID>  (113) 
99064

>  <energy_score>  (113) 
-4.485037

>  <HIPPO Pose ID>  (113) 
61154

>  <inspiration_score>  (113) 
None

>  <ref_pdb>  (113) 
7go7-a

>  <inchikey>  (113) 
RBMMQMMTIVICDN-UHFFFAOYSA-N

>  <alias>  (113) 
None

>  <distance_score>  (113) 
1.827316

>  <ref_mols>  (113) 
7goy-a,7gp2-a

>  <smiles>  (113) 
O=C(CCc1c(-c2ccccc2)[nH]c2c(F)cccc12)NCCn1cc(Cl)c(C(F)(F)F)n1

$$$$
P61158
     RDKit          3D

 33 36  0  0  0  0  0  0  0  0999 V2000
   -7.1103    1.3475   34.9022 C   0  0  0  0  0  0  0  0  0  0  0  0
   -5.9983    0.4944   34.5961 N   0  0  0  0  0  0  0  0  0  0  0  0
   -4.6845    0.7898   33.8291 C   0  0  0  0  0  0  0  0  0  0  0  0
   -4.3383    1.7521   33.2611 O   0  0  0  0  0  0  0  0  0  0  0  0
   -3.8134   -0.4995   33.8590 C   0  0  2  0  0  0  0  0  0  0  0  0
   -3.0235   -0.6811   35.1598 C   0  0  0  0  0  0  0  0  0  0  0  0
   -3.7174   -0.3691   36.3891 N   0  0  0  0  0  0  0  0  0  0  0  0
   -3.3581    0.5867   37.2958 C   0  0  0  0  0  0  0  0  0  0  0  0
   -4.2832    0.5189   38.3053 C   0  0  0  0  0  0  0  0  0  0  0  0
   -4.3736    1.4503   39.7107 Cl  0  0  0  0  0  0  0  0  0  0  0  0
   -5.1602   -0.5082   37.9217 C   0  0  0  0  0  0  0  0  0  0  0  0
   -4.8274   -1.0556   36.7425 N   0  0  0  0  0  0  0  0  0  0  0  0
   -2.8593   -0.3435   32.7618 N   0  0  0  0  0  0  0  0  0  0  0  0
   -2.4442   -1.3377   31.6291 C   0  0  0  0  0  0  0  0  0  0  0  0
   -2.7470   -2.4547   31.4526 O   0  0  0  0  0  0  0  0  0  0  0  0
   -1.4028   -0.5710   30.7676 C   0  0  2  0  0  0  0  0  0  0  0  0
   -2.0031    0.0675   29.5063 C   0  0  0  0  0  0  0  0  0  0  0  0
   -1.1778    1.1751   28.8910 C   0  0  0  0  0  0  0  0  0  0  0  0
    0.0223    1.6733   29.3594 C   0  0  0  0  0  0  0  0  0  0  0  0
    0.3791    2.7497   28.6020 N   0  0  0  0  0  0  0  0  0  0  0  0
   -0.5728    2.9982   27.6538 C   0  0  0  0  0  0  0  0  0  0  0  0
   -0.6617    4.0484   26.7355 C   0  0  0  0  0  0  0  0  0  0  0  0
   -1.7453    4.0549   25.8576 C   0  0  0  0  0  0  0  0  0  0  0  0
   -2.6772    3.0279   25.8739 C   0  0  0  0  0  0  0  0  0  0  0  0
   -2.5539    1.9725   26.7884 C   0  0  0  0  0  0  0  0  0  0  0  0
   -1.5149    1.9751   27.7407 C   0  0  0  0  0  0  0  0  0  0  0  0
   -0.1716   -1.3376   30.5558 N   0  0  0  0  0  0  0  0  0  0  0  0
    0.9918   -1.1427   31.2868 C   0  0  0  0  0  0  0  0  0  0  0  0
    1.0543   -0.4582   32.6073 C   0  0  0  0  0  0  0  0  0  0  0  0
    2.0329   -1.6648   30.5445 C   0  0  0  0  0  0  0  0  0  0  0  0
    1.4797   -2.2763   29.4029 C   0  0  0  0  0  0  0  0  0  0  0  0
    0.1087   -2.1877   29.5057 C   0  0  0  0  0  0  0  0  0  0  0  0
   -0.8994   -2.8206   28.6249 C   0  0  0  0  0  0  0  0  0  0  0  0
  1  2  1  0
  2  3  1  0
  3  4  2  0
  3  5  1  0
  5  6  1  1
  6  7  1  0
  7  8  1  0
  8  9  2  0
  9 10  1  0
  9 11  1  0
 11 12  2  0
  5 13  1  0
 13 14  1  0
 14 15  2  0
 14 16  1  0
 16 17  1  6
 17 18  1  0
 18 19  2  0
 19 20  1  0
 20 21  1  0
 21 22  2  0
 22 23  1  0
 23 24  2  0
 24 25  1  0
 25 26  2  0
 16 27  1  0
 27 28  1  0
 28 29  1  0
 28 30  2  0
 30 31  1  0
 31 32  2  0
 32 33  1  0
 12  7  1  0
 26 18  1  0
 32 27  1  0
 26 21  1  0
M  END
>  <name>  (114) 
P61158

>  <HIPPO Compound ID>  (114) 
99076

>  <energy_score>  (114) 
-6.636616

>  <HIPPO Pose ID>  (114) 
61158

>  <inspiration_score>  (114) 
None

>  <ref_pdb>  (114) 
7go7-a

>  <inchikey>  (114) 
VEWPTBANKZIGAI-VXKWHMMOSA-N

>  <alias>  (114) 
None

>  <distance_score>  (114) 
1.900943

>  <ref_mols>  (114) 
7goy-a,7gp2-a

>  <smiles>  (114) 
CNC(=O)[C@H](Cn1cc(Cl)cn1)NC(=O)[C@H](Cc1c[nH]c2ccccc12)n1c(C)ccc1C

$$$$
P61159
     RDKit          3D

 33 36  0  0  0  0  0  0  0  0999 V2000
    0.9169    6.6413   30.4253 C   0  0  0  0  0  0  0  0  0  0  0  0
    2.2112    6.0902   29.9212 C   0  0  0  0  0  0  0  0  0  0  0  0
    3.4638    6.6570   30.0132 C   0  0  0  0  0  0  0  0  0  0  0  0
    4.3695    5.7915   29.3795 C   0  0  0  0  0  0  0  0  0  0  0  0
    3.6678    4.6984   28.9023 C   0  0  0  0  0  0  0  0  0  0  0  0
    4.2514    3.5605   28.1362 C   0  0  0  0  0  0  0  0  0  0  0  0
    2.3339    4.8733   29.2532 N   0  0  0  0  0  0  0  0  0  0  0  0
    1.1792    3.9831   29.0200 C   0  0  1  0  0  0  0  0  0  0  0  0
    1.2559    3.0474   27.8026 C   0  0  0  0  0  0  0  0  0  0  0  0
   -0.0952    2.5590   27.3692 C   0  0  0  0  0  0  0  0  0  0  0  0
   -0.6141    1.3015   27.5846 C   0  0  0  0  0  0  0  0  0  0  0  0
   -1.9110    1.2957   27.1745 N   0  0  0  0  0  0  0  0  0  0  0  0
   -2.1926    2.4799   26.5452 C   0  0  0  0  0  0  0  0  0  0  0  0
   -3.3494    2.8900   25.8903 C   0  0  0  0  0  0  0  0  0  0  0  0
   -3.3389    4.1291   25.2490 C   0  0  0  0  0  0  0  0  0  0  0  0
   -2.2400    4.9720   25.3377 C   0  0  0  0  0  0  0  0  0  0  0  0
   -1.1073    4.5735   26.0473 C   0  0  0  0  0  0  0  0  0  0  0  0
   -1.0700    3.2934   26.6360 C   0  0  0  0  0  0  0  0  0  0  0  0
    0.7600    3.2160   30.3071 C   0  0  0  0  0  0  0  0  0  0  0  0
   -0.3566    3.2067   30.6502 O   0  0  0  0  0  0  0  0  0  0  0  0
    2.0101    2.5487   30.9374 N   0  0  0  0  0  0  0  0  0  0  0  0
    2.1272    1.6552   32.0655 C   0  0  0  0  0  0  0  0  0  0  0  0
    2.0592    0.1796   31.6942 C   0  0  0  0  0  0  0  0  0  0  0  0
    0.7447   -0.2842   31.2869 N   0  0  0  0  0  0  0  0  0  0  0  0
    0.4496   -0.9030   30.1108 C   0  0  0  0  0  0  0  0  0  0  0  0
   -0.8393   -1.3508   30.2309 C   0  0  0  0  0  0  0  0  0  0  0  0
   -1.7170   -2.1888   29.0632 Cl  0  0  0  0  0  0  0  0  0  0  0  0
   -1.2425   -1.0117   31.5424 C   0  0  0  0  0  0  0  0  0  0  0  0
   -2.5471   -1.3711   32.1779 C   0  0  0  0  0  0  0  0  0  0  0  0
   -3.5897   -0.7330   31.5817 F   0  0  0  0  0  0  0  0  0  0  0  0
   -2.6272   -1.0634   33.4973 F   0  0  0  0  0  0  0  0  0  0  0  0
   -2.8016   -2.7067   32.0635 F   0  0  0  0  0  0  0  0  0  0  0  0
   -0.2565   -0.3507   32.1873 N   0  0  0  0  0  0  0  0  0  0  0  0
  1  2  1  0
  2  3  2  0
  3  4  1  0
  4  5  2  0
  5  6  1  0
  5  7  1  0
  7  8  1  0
  8  9  1  6
  9 10  1  0
 10 11  2  0
 11 12  1  0
 12 13  1  0
 13 14  2  0
 14 15  1  0
 15 16  2  0
 16 17  1  0
 17 18  2  0
  8 19  1  0
 19 20  2  0
 19 21  1  0
 21 22  1  0
 22 23  1  0
 23 24  1  0
 24 25  1  0
 25 26  2  0
 26 27  1  0
 26 28  1  0
 28 29  1  0
 29 30  1  0
 29 31  1  0
 29 32  1  0
 28 33  2  0
  7  2  1  0
 18 10  1  0
 33 24  1  0
 18 13  1  0
M  END
>  <name>  (115) 
P61159

>  <HIPPO Compound ID>  (115) 
99077

>  <energy_score>  (115) 
-17.924819

>  <HIPPO Pose ID>  (115) 
61159

>  <inspiration_score>  (115) 
None

>  <ref_pdb>  (115) 
7go7-a

>  <inchikey>  (115) 
CSVKLNDMEDQVRA-FQEVSTJZSA-N

>  <alias>  (115) 
None

>  <distance_score>  (115) 
1.592661

>  <ref_mols>  (115) 
7goy-a,7gp2-a

>  <smiles>  (115) 
Cc1ccc(C)n1[C@@H](Cc1c[nH]c2ccccc12)C(=O)NCCn1cc(Cl)c(C(F)(F)F)n1

$$$$
P61161
     RDKit          3D

 33 36  0  0  0  0  0  0  0  0999 V2000
   -2.8506   -1.0221   32.0029 C   0  0  0  0  0  0  0  0  0  0  0  0
   -1.6417   -0.4030   31.4030 C   0  0  0  0  0  0  0  0  0  0  0  0
   -1.2605    0.8302   31.7732 N   0  0  0  0  0  0  0  0  0  0  0  0
   -0.0683    1.0254   31.1550 N   0  0  0  0  0  0  0  0  0  0  0  0
    0.7737    2.1658   31.5575 C   0  0  1  0  0  0  0  0  0  0  0  0
    2.2368    2.0975   31.1133 C   0  0  0  0  0  0  0  0  0  0  0  0
    0.1166    3.5372   31.2646 C   0  0  0  0  0  0  0  0  0  0  0  0
   -0.3982    4.1506   32.1199 O   0  0  0  0  0  0  0  0  0  0  0  0
    0.2218    3.8279   29.7357 N   0  0  0  0  0  0  0  0  0  0  0  0
   -0.3288    4.8148   28.9879 N   0  0  0  0  0  0  0  0  0  0  0  0
    0.3395    5.8445   28.0096 C   0  0  0  0  0  0  0  0  0  0  0  0
    1.4708    6.0385   27.7686 O   0  0  0  0  0  0  0  0  0  0  0  0
   -0.8347    6.5605   27.2667 C   0  0  2  0  0  0  0  0  0  0  0  0
   -1.3905    5.7333   26.0577 C   0  0  0  0  0  0  0  0  0  0  0  0
   -1.5661    4.2572   26.3331 C   0  0  0  0  0  0  0  0  0  0  0  0
   -2.7067    3.5655   26.6772 C   0  0  0  0  0  0  0  0  0  0  0  0
   -2.3478    2.3087   27.0780 N   0  0  0  0  0  0  0  0  0  0  0  0
   -0.9929    2.1585   26.9721 C   0  0  0  0  0  0  0  0  0  0  0  0
   -0.1734    1.1012   27.3441 C   0  0  0  0  0  0  0  0  0  0  0  0
    1.2019    1.2345   27.1287 C   0  0  0  0  0  0  0  0  0  0  0  0
    1.7169    2.3563   26.4891 C   0  0  0  0  0  0  0  0  0  0  0  0
    0.8681    3.3909   26.0849 C   0  0  0  0  0  0  0  0  0  0  0  0
   -0.5022    3.3116   26.3745 C   0  0  0  0  0  0  0  0  0  0  0  0
   -0.5222    7.9660   26.9299 N   0  0  0  0  0  0  0  0  0  0  0  0
   -1.0508    9.0612   27.6091 C   0  0  0  0  0  0  0  0  0  0  0  0
   -1.9331    8.9664   28.8052 C   0  0  0  0  0  0  0  0  0  0  0  0
   -0.6071   10.2073   26.9832 C   0  0  0  0  0  0  0  0  0  0  0  0
    0.2269    9.8194   25.9230 C   0  0  0  0  0  0  0  0  0  0  0  0
    0.2900    8.4386   25.9078 C   0  0  0  0  0  0  0  0  0  0  0  0
    1.0891    7.6081   24.9650 C   0  0  0  0  0  0  0  0  0  0  0  0
    0.2744   -0.0436   30.3683 C   0  0  0  0  0  0  0  0  0  0  0  0
   -0.7369   -0.9661   30.4816 C   0  0  0  0  0  0  0  0  0  0  0  0
   -0.8317   -2.4880   29.7466 Cl  0  0  0  0  0  0  0  0  0  0  0  0
  1  2  1  0
  2  3  2  0
  3  4  1  0
  4  5  1  0
  5  6  1  6
  5  7  1  0
  7  8  2  0
  7  9  1  0
  9 10  1  0
 10 11  1  0
 11 12  2  0
 11 13  1  0
 13 14  1  6
 14 15  1  0
 15 16  2  0
 16 17  1  0
 17 18  1  0
 18 19  2  0
 19 20  1  0
 20 21  2  0
 21 22  1  0
 22 23  2  0
 13 24  1  0
 24 25  1  0
 25 26  1  0
 25 27  2  0
 27 28  1  0
 28 29  2  0
 29 30  1  0
  4 31  1  0
 31 32  2  0
 32 33  1  0
 32  2  1  0
 23 15  1  0
 29 24  1  0
 23 18  1  0
M  END
>  <name>  (116) 
P61161

>  <HIPPO Compound ID>  (116) 
99078

>  <energy_score>  (116) 
-2.952764

>  <HIPPO Pose ID>  (116) 
61161

>  <inspiration_score>  (116) 
None

>  <ref_pdb>  (116) 
7go7-a

>  <inchikey>  (116) 
JIVICODKVUBVKV-JTSKRJEESA-N

>  <alias>  (116) 
None

>  <distance_score>  (116) 
1.894259

>  <ref_mols>  (116) 
7goy-a,7gp2-a

>  <smiles>  (116) 
Cc1nn([C@@H](C)C(=O)NNC(=O)[C@H](Cc2c[nH]c3ccccc23)n2c(C)ccc2C)cc1Cl

$$$$
P61166
     RDKit          3D

 33 36  0  0  0  0  0  0  0  0999 V2000
    3.8836    2.1115   29.0878 O   0  0  0  0  0  0  0  0  0  0  0  0
    2.9240    2.6691   28.7322 C   0  0  0  0  0  0  0  0  0  0  0  0
    2.7254    3.1403   27.2957 C   0  0  0  0  0  0  0  0  0  0  0  0
    1.9228    2.1564   26.4499 C   0  0  0  0  0  0  0  0  0  0  0  0
    0.4636    2.0507   26.8314 C   0  0  0  0  0  0  0  0  0  0  0  0
   -0.2136    1.0186   27.4953 C   0  0  0  0  0  0  0  0  0  0  0  0
    0.1852   -0.3358   27.9472 C   0  0  0  0  0  0  0  0  0  0  0  0
   -0.7843   -1.3392   28.1353 C   0  0  0  0  0  0  0  0  0  0  0  0
   -0.4280   -2.6483   28.4802 C   0  0  0  0  0  0  0  0  0  0  0  0
    0.9087   -2.9883   28.6356 C   0  0  0  0  0  0  0  0  0  0  0  0
    1.8841   -2.0136   28.4772 C   0  0  0  0  0  0  0  0  0  0  0  0
    1.5216   -0.7012   28.1518 C   0  0  0  0  0  0  0  0  0  0  0  0
   -1.5106    1.4677   27.6487 N   0  0  0  0  0  0  0  0  0  0  0  0
   -1.7350    2.5881   26.8938 C   0  0  0  0  0  0  0  0  0  0  0  0
   -2.9255    3.2335   26.5632 C   0  0  0  0  0  0  0  0  0  0  0  0
   -2.8561    4.3398   25.7131 C   0  0  0  0  0  0  0  0  0  0  0  0
   -1.6379    4.8127   25.2653 C   0  0  0  0  0  0  0  0  0  0  0  0
   -1.5950    5.8777   24.4545 F   0  0  0  0  0  0  0  0  0  0  0  0
   -0.4568    4.1722   25.6096 C   0  0  0  0  0  0  0  0  0  0  0  0
   -0.5100    3.0138   26.4118 C   0  0  0  0  0  0  0  0  0  0  0  0
    1.6500    3.0681   29.5123 N   0  0  0  0  0  0  0  0  0  0  0  0
    1.3347    2.9474   30.9121 C   0  0  0  0  0  0  0  0  0  0  0  0
   -0.0779    2.4213   31.1434 C   0  0  0  0  0  0  0  0  0  0  0  0
   -0.2917    0.9866   31.1950 N   0  0  0  0  0  0  0  0  0  0  0  0
    0.6320   -0.0041   31.2765 C   0  0  0  0  0  0  0  0  0  0  0  0
   -0.0461   -1.1405   31.6351 C   0  0  0  0  0  0  0  0  0  0  0  0
    0.6482   -2.6398   32.0219 Cl  0  0  0  0  0  0  0  0  0  0  0  0
   -1.4064   -0.7690   31.6956 C   0  0  0  0  0  0  0  0  0  0  0  0
   -2.5457   -1.6487   32.0958 C   0  0  0  0  0  0  0  0  0  0  0  0
   -3.4274   -1.0108   32.9132 F   0  0  0  0  0  0  0  0  0  0  0  0
   -3.2618   -2.0939   31.0253 F   0  0  0  0  0  0  0  0  0  0  0  0
   -2.1463   -2.7679   32.7491 F   0  0  0  0  0  0  0  0  0  0  0  0
   -1.5602    0.5418   31.3885 N   0  0  0  0  0  0  0  0  0  0  0  0
  1  2  2  0
  2  3  1  0
  3  4  1  0
  4  5  1  0
  5  6  2  0
  6  7  1  0
  7  8  2  0
  8  9  1  0
  9 10  2  0
 10 11  1  0
 11 12  2  0
  6 13  1  0
 13 14  1  0
 14 15  2  0
 15 16  1  0
 16 17  2  0
 17 18  1  0
 17 19  1  0
 19 20  2  0
  2 21  1  0
 21 22  1  0
 22 23  1  0
 23 24  1  0
 24 25  1  0
 25 26  2  0
 26 27  1  0
 26 28  1  0
 28 29  1  0
 29 30  1  0
 29 31  1  0
 29 32  1  0
 28 33  2  0
 20  5  1  0
 33 24  1  0
 12  7  1  0
 20 14  1  0
M  END
>  <name>  (117) 
P61166

>  <HIPPO Compound ID>  (117) 
99111

>  <energy_score>  (117) 
-23.257196

>  <HIPPO Pose ID>  (117) 
61166

>  <inspiration_score>  (117) 
None

>  <ref_pdb>  (117) 
7go7-a

>  <inchikey>  (117) 
BMJYRXDTFXVQOX-UHFFFAOYSA-N

>  <alias>  (117) 
None

>  <distance_score>  (117) 
1.858033

>  <ref_mols>  (117) 
7goy-a,7gp2-a

>  <smiles>  (117) 
O=C(CCc1c(-c2ccccc2)[nH]c2ccc(F)cc12)NCCn1cc(Cl)c(C(F)(F)F)n1

$$$$
P61167
     RDKit          3D

 33 35  0  0  0  0  0  0  0  0999 V2000
    1.1277   -0.7896   28.4038 C   0  0  0  0  0  0  0  0  0  0  0  0
    0.3523   -0.8600   29.6722 C   0  0  0  0  0  0  0  0  0  0  0  0
   -0.9618   -1.2047   29.8802 C   0  0  0  0  0  0  0  0  0  0  0  0
   -2.0363   -1.6890   28.6799 Cl  0  0  0  0  0  0  0  0  0  0  0  0
   -1.1957   -1.0797   31.2693 C   0  0  0  0  0  0  0  0  0  0  0  0
   -2.4646   -1.4022   32.0017 C   0  0  0  0  0  0  0  0  0  0  0  0
   -2.4347   -1.0826   33.3214 F   0  0  0  0  0  0  0  0  0  0  0  0
   -2.7669   -2.7283   31.9176 F   0  0  0  0  0  0  0  0  0  0  0  0
   -3.5242   -0.7261   31.4849 F   0  0  0  0  0  0  0  0  0  0  0  0
   -0.0854   -0.6244   31.8874 N   0  0  0  0  0  0  0  0  0  0  0  0
    0.8586   -0.6091   30.9221 N   0  0  0  0  0  0  0  0  0  0  0  0
    2.2352   -0.3183   31.3140 C   0  0  0  0  0  0  0  0  0  0  0  0
    2.7629    0.8849   30.5667 C   0  0  0  0  0  0  0  0  0  0  0  0
    3.6905    0.8329   29.8582 O   0  0  0  0  0  0  0  0  0  0  0  0
    1.7880    2.0584   30.8647 N   0  0  0  0  0  0  0  0  0  0  0  0
    1.7069    3.2749   30.3240 N   0  0  0  0  0  0  0  0  0  0  0  0
    0.6180    4.3684   30.4662 C   0  0  0  0  0  0  0  0  0  0  0  0
   -0.3352    4.4030   31.1381 O   0  0  0  0  0  0  0  0  0  0  0  0
    0.9539    5.4369   29.4359 C   0  0  0  0  0  0  0  0  0  0  0  0
    0.5833    5.1451   27.9540 C   0  0  2  0  0  0  0  0  0  0  0  0
   -0.4292    4.0426   27.6331 C   0  0  0  0  0  0  0  0  0  0  0  0
   -0.5911    2.7762   28.1636 C   0  0  0  0  0  0  0  0  0  0  0  0
   -1.6888    2.1817   27.5953 N   0  0  0  0  0  0  0  0  0  0  0  0
   -2.2109    2.9972   26.6245 C   0  0  0  0  0  0  0  0  0  0  0  0
   -3.3209    2.8285   25.7945 C   0  0  0  0  0  0  0  0  0  0  0  0
   -3.5717    3.8157   24.8342 C   0  0  0  0  0  0  0  0  0  0  0  0
   -2.7507    4.9272   24.7201 C   0  0  0  0  0  0  0  0  0  0  0  0
   -3.0526    6.1808   23.3348 Br  0  0  0  0  0  0  0  0  0  0  0  0
   -1.6964    5.1220   25.6091 C   0  0  0  0  0  0  0  0  0  0  0  0
   -1.4160    4.1413   26.5853 C   0  0  0  0  0  0  0  0  0  0  0  0
    1.7795    5.1248   26.9449 C   0  0  0  0  0  0  0  0  0  0  0  0
    2.8104    4.0232   27.1827 C   0  0  0  0  0  0  0  0  0  0  0  0
    2.4851    6.4852   26.8687 C   0  0  0  0  0  0  0  0  0  0  0  0
  1  2  1  0
  2  3  2  0
  3  4  1  0
  3  5  1  0
  5  6  1  0
  6  7  1  0
  6  8  1  0
  6  9  1  0
  5 10  2  0
 10 11  1  0
 11 12  1  0
 12 13  1  0
 13 14  2  0
 13 15  1  0
 15 16  1  0
 16 17  1  0
 17 18  2  0
 17 19  1  0
 20 19  1  1
 20 21  1  0
 21 22  2  0
 22 23  1  0
 23 24  1  0
 24 25  2  0
 25 26  1  0
 26 27  2  0
 27 28  1  0
 27 29  1  0
 29 30  2  0
 20 31  1  0
 31 32  1  0
 31 33  1  0
 11  2  1  0
 30 21  1  0
 30 24  1  0
M  END
>  <name>  (118) 
P61167

>  <HIPPO Compound ID>  (118) 
99134

>  <energy_score>  (118) 
-6.391617

>  <HIPPO Pose ID>  (118) 
61167

>  <inspiration_score>  (118) 
None

>  <ref_pdb>  (118) 
7go7-a

>  <inchikey>  (118) 
ZHSYULWYJLHHHW-ZDUSSCGKSA-N

>  <alias>  (118) 
None

>  <distance_score>  (118) 
1.524299

>  <ref_mols>  (118) 
7goy-a,7gp2-a

>  <smiles>  (118) 
Cc1c(Cl)c(C(F)(F)F)nn1CC(=O)NNC(=O)C[C@H](c1c[nH]c2ccc(Br)cc12)C(C)C

$$$$
P61170
     RDKit          3D

 33 36  0  0  0  0  0  0  0  0999 V2000
    1.0836    5.3976   23.4649 C   0  0  0  0  0  0  0  0  0  0  0  0
    0.8981    6.1891   24.7542 C   0  0  0  0  0  0  0  0  0  0  0  0
    1.0866    5.3439   26.0247 C   0  0  1  0  0  0  0  0  0  0  0  0
    1.0304    6.2435   27.2954 C   0  0  0  0  0  0  0  0  0  0  0  0
    1.7157    5.4941   28.4382 C   0  0  0  0  0  0  0  0  0  0  0  0
    2.8614    5.5693   28.6534 O   0  0  0  0  0  0  0  0  0  0  0  0
    0.6242    4.6104   29.0993 N   0  0  0  0  0  0  0  0  0  0  0  0
    0.7279    3.6471   30.0207 N   0  0  0  0  0  0  0  0  0  0  0  0
   -0.0843    2.3384   30.2045 C   0  0  0  0  0  0  0  0  0  0  0  0
   -1.0175    1.9395   29.6263 O   0  0  0  0  0  0  0  0  0  0  0  0
    0.6095    1.5073   31.2666 C   0  0  0  0  0  0  0  0  0  0  0  0
    0.0414    0.1727   31.2070 N   0  0  0  0  0  0  0  0  0  0  0  0
   -1.0124   -0.0961   32.0041 N   0  0  0  0  0  0  0  0  0  0  0  0
   -1.4855   -1.2690   31.5367 C   0  0  0  0  0  0  0  0  0  0  0  0
   -2.6413   -1.9699   32.1599 C   0  0  0  0  0  0  0  0  0  0  0  0
   -3.0546   -1.3975   33.3199 F   0  0  0  0  0  0  0  0  0  0  0  0
   -2.3249   -3.2663   32.4210 F   0  0  0  0  0  0  0  0  0  0  0  0
   -3.7309   -2.0216   31.3468 F   0  0  0  0  0  0  0  0  0  0  0  0
   -0.6869   -1.7565   30.4754 C   0  0  0  0  0  0  0  0  0  0  0  0
   -0.8660   -3.2266   29.6520 Cl  0  0  0  0  0  0  0  0  0  0  0  0
    0.3183   -0.8326   30.3207 C   0  0  0  0  0  0  0  0  0  0  0  0
    1.5413   -1.0166   29.3832 C   0  0  0  0  0  0  0  0  0  0  0  0
    2.0808    0.0857   28.5268 C   0  0  0  0  0  0  0  0  0  0  0  0
    1.3140   -1.0382   27.8974 C   0  0  0  0  0  0  0  0  0  0  0  0
    0.1699    4.1320   26.1563 C   0  0  0  0  0  0  0  0  0  0  0  0
    0.5917    2.9067   26.6468 C   0  0  0  0  0  0  0  0  0  0  0  0
   -0.4958    2.1055   26.8312 N   0  0  0  0  0  0  0  0  0  0  0  0
   -1.6079    2.7105   26.3133 C   0  0  0  0  0  0  0  0  0  0  0  0
   -2.9132    2.2319   26.2417 C   0  0  0  0  0  0  0  0  0  0  0  0
   -3.8589    3.0482   25.6328 C   0  0  0  0  0  0  0  0  0  0  0  0
   -3.4969    4.2759   25.0966 C   0  0  0  0  0  0  0  0  0  0  0  0
   -2.2031    4.7731   25.2483 C   0  0  0  0  0  0  0  0  0  0  0  0
   -1.2228    3.9734   25.8583 C   0  0  0  0  0  0  0  0  0  0  0  0
  1  2  1  0
  3  2  1  6
  3  4  1  0
  4  5  1  0
  5  6  2  0
  5  7  1  0
  7  8  1  0
  8  9  1  0
  9 10  2  0
  9 11  1  0
 11 12  1  0
 12 13  1  0
 13 14  2  0
 14 15  1  0
 15 16  1  0
 15 17  1  0
 15 18  1  0
 14 19  1  0
 19 20  1  0
 19 21  2  0
 21 22  1  0
 22 23  1  0
 23 24  1  0
  3 25  1  0
 25 26  2  0
 26 27  1  0
 27 28  1  0
 28 29  2  0
 29 30  1  0
 30 31  2  0
 31 32  1  0
 32 33  2  0
 21 12  1  0
 24 22  1  0
 33 25  1  0
 33 28  1  0
M  END
>  <name>  (119) 
P61170

>  <HIPPO Compound ID>  (119) 
99172

>  <energy_score>  (119) 
-9.656273

>  <HIPPO Pose ID>  (119) 
61170

>  <inspiration_score>  (119) 
None

>  <ref_pdb>  (119) 
7go7-a

>  <inchikey>  (119) 
NSBOSBITSMUNFP-LBPRGKRZSA-N

>  <alias>  (119) 
None

>  <distance_score>  (119) 
1.460014

>  <ref_mols>  (119) 
7goy-a,7gp2-a

>  <smiles>  (119) 
CC[C@@H](CC(=O)NNC(=O)Cn1nc(C(F)(F)F)c(Cl)c1C1CC1)c1c[nH]c2ccccc12

$$$$
P61171
     RDKit          3D

 33 37  0  0  0  0  0  0  0  0999 V2000
   -2.1006    6.0735   25.1525 C   0  0  0  0  0  0  0  0  0  0  0  0
   -2.0034    4.7307   25.8142 C   0  0  0  0  0  0  0  0  0  0  0  0
   -2.8991    3.7061   25.5060 C   0  0  0  0  0  0  0  0  0  0  0  0
   -2.7637    2.4277   26.0508 C   0  0  0  0  0  0  0  0  0  0  0  0
   -1.6576    2.1909   26.8628 C   0  0  0  0  0  0  0  0  0  0  0  0
   -1.1974    1.0251   27.4124 N   0  0  0  0  0  0  0  0  0  0  0  0
   -0.0020    1.2627   28.0339 C   0  0  0  0  0  0  0  0  0  0  0  0
    0.1575    2.6273   28.1650 C   0  0  0  0  0  0  0  0  0  0  0  0
    1.1544    3.3758   29.0028 C   0  0  0  0  0  0  0  0  0  0  0  0
    1.6138    2.6768   30.2888 C   0  0  0  0  0  0  0  0  0  0  0  0
    0.4338    2.2392   31.1630 C   0  0  0  0  0  0  0  0  0  0  0  0
   -0.2219    2.9906   31.7745 O   0  0  0  0  0  0  0  0  0  0  0  0
    0.2806    0.6994   30.9563 N   0  0  0  0  0  0  0  0  0  0  0  0
   -0.7115   -0.1600   31.3615 C   0  0  0  0  0  0  0  0  0  0  0  0
   -1.8262    0.0003   32.1577 C   0  0  0  0  0  0  0  0  0  0  0  0
   -2.3406    1.2912   33.1240 Cl  0  0  0  0  0  0  0  0  0  0  0  0
   -2.5254   -1.2107   32.0847 C   0  0  0  0  0  0  0  0  0  0  0  0
   -1.9184   -2.0964   31.3048 N   0  0  0  0  0  0  0  0  0  0  0  0
   -0.7808   -1.4726   30.9262 N   0  0  0  0  0  0  0  0  0  0  0  0
    0.1751   -2.2302   30.1337 C   0  0  2  0  0  0  0  0  0  0  0  0
   -0.3712   -2.6376   28.7625 C   0  0  0  0  0  0  0  0  0  0  0  0
    0.0939   -4.0729   28.5812 C   0  0  0  0  0  0  0  0  0  0  0  0
    0.0588   -4.6074   29.9407 N   0  0  0  0  0  0  0  0  0  0  0  0
    0.7448   -5.8909   30.0896 C   0  0  0  0  0  0  0  0  0  0  0  0
   -0.0013   -7.0164   29.4060 C   0  0  0  0  0  0  0  0  0  0  0  0
   -1.1766   -7.5301   29.9747 C   0  0  0  0  0  0  0  0  0  0  0  0
   -1.9014   -8.5311   29.3271 C   0  0  0  0  0  0  0  0  0  0  0  0
   -1.4545   -9.0345   28.1073 C   0  0  0  0  0  0  0  0  0  0  0  0
   -0.2839   -8.5385   27.5351 C   0  0  0  0  0  0  0  0  0  0  0  0
    0.4396   -7.5332   28.1795 C   0  0  0  0  0  0  0  0  0  0  0  0
    0.6131   -3.5509   30.7941 C   0  0  0  0  0  0  0  0  0  0  0  0
   -0.7859    3.2042   27.2599 C   0  0  0  0  0  0  0  0  0  0  0  0
   -0.9798    4.4999   26.7454 C   0  0  0  0  0  0  0  0  0  0  0  0
  1  2  1  0
  2  3  2  0
  3  4  1  0
  4  5  2  0
  5  6  1  0
  6  7  1  0
  7  8  2  0
  8  9  1  0
  9 10  1  0
 10 11  1  0
 11 12  2  0
 11 13  1  0
 13 14  1  0
 14 15  2  0
 15 16  1  0
 15 17  1  0
 17 18  2  0
 18 19  1  0
 20 19  1  1
 20 21  1  0
 21 22  1  0
 22 23  1  0
 23 24  1  0
 24 25  1  0
 25 26  2  0
 26 27  1  0
 27 28  2  0
 28 29  1  0
 29 30  2  0
 23 31  1  0
  8 32  1  0
 32 33  2  0
 33  2  1  0
 32  5  1  0
 19 14  1  0
 31 20  1  0
 30 25  1  0
M  END
>  <name>  (120) 
P61171

>  <HIPPO Compound ID>  (120) 
99203

>  <energy_score>  (120) 
-21.210881

>  <HIPPO Pose ID>  (120) 
61171

>  <inspiration_score>  (120) 
None

>  <ref_pdb>  (120) 
7go7-a

>  <inchikey>  (120) 
VHKBWLATVBEIFO-OAQYLSRUSA-N

>  <alias>  (120) 
None

>  <distance_score>  (120) 
1.816192

>  <ref_mols>  (120) 
7goy-a,7gp2-a

>  <smiles>  (120) 
Cc1ccc2[nH]cc(CCC(=O)Nc3c(Cl)cnn3[C@@H]3CCN(Cc4ccccc4)C3)c2c1

$$$$
P61172
     RDKit          3D

 33 37  0  0  0  0  0  0  0  0999 V2000
   -0.8733    6.1899   27.1135 C   0  0  0  0  0  0  0  0  0  0  0  0
   -1.2816    4.7809   26.7839 C   0  0  0  0  0  0  0  0  0  0  0  0
   -2.4503    4.5782   26.0237 C   0  0  0  0  0  0  0  0  0  0  0  0
   -2.9276    3.3074   25.7302 C   0  0  0  0  0  0  0  0  0  0  0  0
   -2.2165    2.1790   26.1100 C   0  0  0  0  0  0  0  0  0  0  0  0
   -0.9964    2.3770   26.7549 C   0  0  0  0  0  0  0  0  0  0  0  0
   -0.0500    1.4554   27.1256 N   0  0  0  0  0  0  0  0  0  0  0  0
    0.9396    2.0571   27.8374 C   0  0  0  0  0  0  0  0  0  0  0  0
    0.6114    3.3893   27.9788 C   0  0  0  0  0  0  0  0  0  0  0  0
    1.2976    4.3110   28.9323 C   0  0  0  0  0  0  0  0  0  0  0  0
    0.5450    4.3839   30.2641 C   0  0  0  0  0  0  0  0  0  0  0  0
    0.6781    3.1118   31.1097 C   0  0  0  0  0  0  0  0  0  0  0  0
    1.4555    3.0384   31.9798 O   0  0  0  0  0  0  0  0  0  0  0  0
   -0.3677    2.0750   30.6006 N   0  0  0  0  0  0  0  0  0  0  0  0
   -0.5898    0.7722   30.9793 C   0  0  0  0  0  0  0  0  0  0  0  0
   -1.1907   -0.2268   30.2302 C   0  0  0  0  0  0  0  0  0  0  0  0
   -1.9991   -0.1640   28.7564 Cl  0  0  0  0  0  0  0  0  0  0  0  0
   -0.8923   -1.4184   30.8843 C   0  0  0  0  0  0  0  0  0  0  0  0
   -0.2637   -1.2056   32.0347 N   0  0  0  0  0  0  0  0  0  0  0  0
   -0.2247    0.1488   32.1564 N   0  0  0  0  0  0  0  0  0  0  0  0
   -0.1200    0.6294   33.5196 C   0  0  2  0  0  0  0  0  0  0  0  0
   -0.7377    1.9661   33.9329 C   0  0  0  0  0  0  0  0  0  0  0  0
    0.2782    2.5817   34.8972 C   0  0  0  0  0  0  0  0  0  0  0  0
    1.2038    1.5107   35.3049 N   0  0  0  0  0  0  0  0  0  0  0  0
    0.6973    0.8072   36.4991 C   0  0  0  0  0  0  0  0  0  0  0  0
    1.6293   -0.2458   37.0632 C   0  0  0  0  0  0  0  0  0  0  0  0
    1.0970   -1.4078   37.6444 C   0  0  0  0  0  0  0  0  0  0  0  0
    1.9342   -2.3633   38.2236 C   0  0  0  0  0  0  0  0  0  0  0  0
    3.3136   -2.1681   38.2320 C   0  0  0  0  0  0  0  0  0  0  0  0
    3.8557   -1.0140   37.6699 C   0  0  0  0  0  0  0  0  0  0  0  0
    3.0185   -0.0543   37.0976 C   0  0  0  0  0  0  0  0  0  0  0  0
    1.2886    0.6455   34.1037 C   0  0  0  0  0  0  0  0  0  0  0  0
   -0.5378    3.6340   27.1575 C   0  0  0  0  0  0  0  0  0  0  0  0
  1  2  1  0
  2  3  2  0
  3  4  1  0
  4  5  2  0
  5  6  1  0
  6  7  1  0
  7  8  1  0
  8  9  2  0
  9 10  1  0
 10 11  1  0
 11 12  1  0
 12 13  2  0
 12 14  1  0
 14 15  1  0
 15 16  2  0
 16 17  1  0
 16 18  1  0
 18 19  2  0
 19 20  1  0
 21 20  1  6
 21 22  1  0
 22 23  1  0
 23 24  1  0
 24 25  1  0
 25 26  1  0
 26 27  2  0
 27 28  1  0
 28 29  2  0
 29 30  1  0
 30 31  2  0
 24 32  1  0
  9 33  1  0
 33  2  1  0
 33  6  2  0
 20 15  1  0
 32 21  1  0
 31 26  1  0
M  END
>  <name>  (121) 
P61172

>  <HIPPO Compound ID>  (121) 
99208

>  <energy_score>  (121) 
-18.895753

>  <HIPPO Pose ID>  (121) 
61172

>  <inspiration_score>  (121) 
None

>  <ref_pdb>  (121) 
7go7-a

>  <inchikey>  (121) 
WLMIGZGUCFFNID-OAQYLSRUSA-N

>  <alias>  (121) 
None

>  <distance_score>  (121) 
1.881164

>  <ref_mols>  (121) 
7goy-a,7gp2-a

>  <smiles>  (121) 
Cc1cccc2[nH]cc(CCC(=O)Nc3c(Cl)cnn3[C@@H]3CCN(Cc4ccccc4)C3)c12

$$$$
P61173
     RDKit          3D

 34 37  0  0  0  0  0  0  0  0999 V2000
   -7.1568   -0.7632   33.5983 C   0  0  0  0  0  0  0  0  0  0  0  0
   -5.7321   -1.2919   33.6289 C   0  0  0  0  0  0  0  0  0  0  0  0
   -4.7565   -0.3066   34.2866 C   0  0  2  0  0  0  0  0  0  0  0  0
   -3.2853   -0.6983   34.0481 C   0  0  0  0  0  0  0  0  0  0  0  0
   -2.8007   -0.2244   32.7646 N   0  0  0  0  0  0  0  0  0  0  0  0
   -2.6393   -0.9728   31.4030 C   0  0  0  0  0  0  0  0  0  0  0  0
   -2.9447   -2.0582   31.0952 O   0  0  0  0  0  0  0  0  0  0  0  0
   -2.0617    0.0921   30.4742 C   0  0  0  0  0  0  0  0  0  0  0  0
   -1.6486   -0.3446   29.0653 C   0  0  0  0  0  0  0  0  0  0  0  0
   -0.9214    0.8082   28.4003 C   0  0  0  0  0  0  0  0  0  0  0  0
    0.3594    1.2272   28.7461 C   0  0  0  0  0  0  0  0  0  0  0  0
    1.3302    0.7099   29.7200 C   0  0  0  0  0  0  0  0  0  0  0  0
    1.7292    1.5403   30.7786 C   0  0  0  0  0  0  0  0  0  0  0  0
    2.6220    1.0813   31.7518 C   0  0  0  0  0  0  0  0  0  0  0  0
    3.1336   -0.2155   31.6941 C   0  0  0  0  0  0  0  0  0  0  0  0
    3.9847   -0.5401   32.7136 O   0  0  0  0  0  0  0  0  0  0  0  0
    4.5901   -1.8261   32.6586 C   0  0  0  0  0  0  0  0  0  0  0  0
    2.7490   -1.0504   30.6477 C   0  0  0  0  0  0  0  0  0  0  0  0
    1.8721   -0.5823   29.6587 C   0  0  0  0  0  0  0  0  0  0  0  0
    1.5294   -1.4687   28.6693 O   0  0  0  0  0  0  0  0  0  0  0  0
    2.3960   -1.3100   27.5430 C   0  0  0  0  0  0  0  0  0  0  0  0
    0.6025    2.3995   28.0796 N   0  0  0  0  0  0  0  0  0  0  0  0
   -0.4720    2.7764   27.3260 C   0  0  0  0  0  0  0  0  0  0  0  0
   -0.6665    3.9347   26.5647 C   0  0  0  0  0  0  0  0  0  0  0  0
   -1.8581    4.0540   25.8480 C   0  0  0  0  0  0  0  0  0  0  0  0
   -2.8052    3.0403   25.8791 C   0  0  0  0  0  0  0  0  0  0  0  0
   -2.5855    1.8958   26.6532 C   0  0  0  0  0  0  0  0  0  0  0  0
   -1.4151    1.7587   27.4260 C   0  0  0  0  0  0  0  0  0  0  0  0
   -5.0312   -0.1264   35.7122 N   0  0  0  0  0  0  0  0  0  0  0  0
   -5.6037    0.9743   36.2891 C   0  0  0  0  0  0  0  0  0  0  0  0
   -5.5946    0.7408   37.6414 C   0  0  0  0  0  0  0  0  0  0  0  0
   -6.1636    1.7404   38.8785 Cl  0  0  0  0  0  0  0  0  0  0  0  0
   -5.0026   -0.5242   37.7878 C   0  0  0  0  0  0  0  0  0  0  0  0
   -4.6770   -1.0702   36.6092 N   0  0  0  0  0  0  0  0  0  0  0  0
  1  2  1  0
  3  2  1  1
  3  4  1  0
  4  5  1  0
  5  6  1  0
  6  7  2  0
  6  8  1  0
  8  9  1  0
  9 10  1  0
 10 11  2  0
 11 12  1  0
 12 13  2  0
 13 14  1  0
 14 15  2  0
 15 16  1  0
 16 17  1  0
 15 18  1  0
 18 19  2  0
 19 20  1  0
 20 21  1  0
 11 22  1  0
 22 23  1  0
 23 24  2  0
 24 25  1  0
 25 26  2  0
 26 27  1  0
 27 28  2  0
  3 29  1  0
 29 30  1  0
 30 31  2  0
 31 32  1  0
 31 33  1  0
 33 34  2  0
 28 10  1  0
 34 29  1  0
 19 12  1  0
 28 23  1  0
M  END
>  <name>  (122) 
P61173

>  <HIPPO Compound ID>  (122) 
99211

>  <energy_score>  (122) 
-30.10061

>  <HIPPO Pose ID>  (122) 
61173

>  <inspiration_score>  (122) 
None

>  <ref_pdb>  (122) 
7go7-a

>  <inchikey>  (122) 
DETVFAYOGCBLIM-GOSISDBHSA-N

>  <alias>  (122) 
None

>  <distance_score>  (122) 
1.824919

>  <ref_mols>  (122) 
7goy-a,7gp2-a

>  <smiles>  (122) 
CC[C@H](CNC(=O)CCc1c(-c2ccc(OC)cc2OC)[nH]c2ccccc12)n1cc(Cl)cn1

$$$$
P61174
     RDKit          3D

 34 37  0  0  0  0  0  0  0  0999 V2000
   -3.1413   -1.4308   31.9104 C   0  0  0  0  0  0  0  0  0  0  0  0
   -1.8705   -0.8179   31.4659 C   0  0  0  0  0  0  0  0  0  0  0  0
   -1.3313    0.1602   32.2077 N   0  0  0  0  0  0  0  0  0  0  0  0
   -0.1047    0.3348   31.6763 N   0  0  0  0  0  0  0  0  0  0  0  0
    0.8718    1.1077   32.4482 C   0  0  1  0  0  0  0  0  0  0  0  0
    1.4575    0.2480   33.5703 C   0  0  0  0  0  0  0  0  0  0  0  0
    1.9798    1.6576   31.5512 C   0  0  0  0  0  0  0  0  0  0  0  0
    3.0414    1.1710   31.4866 O   0  0  0  0  0  0  0  0  0  0  0  0
    1.3625    2.8425   30.7501 N   0  0  0  0  0  0  0  0  0  0  0  0
    1.8541    3.5463   29.7273 N   0  0  0  0  0  0  0  0  0  0  0  0
    1.3964    4.9028   29.1244 C   0  0  0  0  0  0  0  0  0  0  0  0
    0.5702    5.6467   29.4783 O   0  0  0  0  0  0  0  0  0  0  0  0
    2.2162    5.0953   27.8530 C   0  0  0  0  0  0  0  0  0  0  0  0
    1.6546    4.4026   26.6054 C   0  0  0  0  0  0  0  0  0  0  0  0
    0.7157    3.2432   26.8275 C   0  0  0  0  0  0  0  0  0  0  0  0
    0.9938    1.9028   27.1548 C   0  0  0  0  0  0  0  0  0  0  0  0
    2.2425    1.1029   27.2970 C   0  0  0  0  0  0  0  0  0  0  0  0
    3.5209    1.6790   27.2684 C   0  0  0  0  0  0  0  0  0  0  0  0
    4.6821    0.9023   27.3915 C   0  0  0  0  0  0  0  0  0  0  0  0
    4.5807   -0.4736   27.5177 C   0  0  0  0  0  0  0  0  0  0  0  0
    5.6890   -1.2198   27.6153 F   0  0  0  0  0  0  0  0  0  0  0  0
    3.3414   -1.0855   27.5221 C   0  0  0  0  0  0  0  0  0  0  0  0
    2.1872   -0.3030   27.4138 C   0  0  0  0  0  0  0  0  0  0  0  0
   -0.2413    1.3193   27.3587 N   0  0  0  0  0  0  0  0  0  0  0  0
   -1.2389    2.1284   26.9066 C   0  0  0  0  0  0  0  0  0  0  0  0
   -2.5711    1.8374   26.6907 C   0  0  0  0  0  0  0  0  0  0  0  0
   -2.9995    0.5853   26.8792 F   0  0  0  0  0  0  0  0  0  0  0  0
   -3.4106    2.8153   26.1756 C   0  0  0  0  0  0  0  0  0  0  0  0
   -2.9063    4.0805   25.9042 C   0  0  0  0  0  0  0  0  0  0  0  0
   -1.5578    4.3740   26.1331 C   0  0  0  0  0  0  0  0  0  0  0  0
   -0.6975    3.3604   26.6092 C   0  0  0  0  0  0  0  0  0  0  0  0
    0.0783   -0.3761   30.5249 C   0  0  0  0  0  0  0  0  0  0  0  0
   -1.0515   -1.1373   30.3604 C   0  0  0  0  0  0  0  0  0  0  0  0
   -1.3347   -2.2781   29.1487 Cl  0  0  0  0  0  0  0  0  0  0  0  0
  1  2  1  0
  2  3  2  0
  3  4  1  0
  4  5  1  0
  5  6  1  1
  5  7  1  0
  7  8  2  0
  7  9  1  0
  9 10  1  0
 10 11  1  0
 11 12  2  0
 11 13  1  0
 13 14  1  0
 14 15  1  0
 15 16  2  0
 16 17  1  0
 17 18  2  0
 18 19  1  0
 19 20  2  0
 20 21  1  0
 20 22  1  0
 22 23  2  0
 16 24  1  0
 24 25  1  0
 25 26  2  0
 26 27  1  0
 26 28  1  0
 28 29  2  0
 29 30  1  0
 30 31  2  0
  4 32  1  0
 32 33  2  0
 33 34  1  0
 33  2  1  0
 31 15  1  0
 23 17  1  0
 31 25  1  0
M  END
>  <name>  (123) 
P61174

>  <HIPPO Compound ID>  (123) 
99249

>  <energy_score>  (123) 
-6.849865

>  <HIPPO Pose ID>  (123) 
61174

>  <inspiration_score>  (123) 
None

>  <ref_pdb>  (123) 
7go7-a

>  <inchikey>  (123) 
SKDKMTKHNHOLEF-AWEZNQCLSA-N

>  <alias>  (123) 
None

>  <distance_score>  (123) 
1.720836

>  <ref_mols>  (123) 
7goy-a,7gp2-a

>  <smiles>  (123) 
Cc1nn([C@@H](C)C(=O)NNC(=O)CCc2c(-c3ccc(F)cc3)[nH]c3c(F)cccc23)cc1Cl

$$$$
P61175
     RDKit          3D

 34 37  0  0  0  0  0  0  0  0999 V2000
    4.4235    2.8777   29.1392 O   0  0  0  0  0  0  0  0  0  0  0  0
    3.3641    2.4486   28.9113 C   0  0  0  0  0  0  0  0  0  0  0  0
    2.4311    3.0826   27.8783 C   0  0  0  0  0  0  0  0  0  0  0  0
    1.8594    2.1165   26.8348 C   0  0  0  0  0  0  0  0  0  0  0  0
    0.3556    1.9540   26.9537 C   0  0  0  0  0  0  0  0  0  0  0  0
   -0.4284    0.8793   27.4061 C   0  0  0  0  0  0  0  0  0  0  0  0
   -0.1556   -0.5092   27.8737 C   0  0  0  0  0  0  0  0  0  0  0  0
    1.1215   -1.0825   27.9102 C   0  0  0  0  0  0  0  0  0  0  0  0
    1.3566   -2.3472   28.4774 C   0  0  0  0  0  0  0  0  0  0  0  0
    0.3024   -3.0781   28.9972 C   0  0  0  0  0  0  0  0  0  0  0  0
    0.5631   -4.5567   29.8280 Cl  0  0  0  0  0  0  0  0  0  0  0  0
   -0.9850   -2.5935   28.8676 C   0  0  0  0  0  0  0  0  0  0  0  0
   -1.2099   -1.3363   28.3008 C   0  0  0  0  0  0  0  0  0  0  0  0
   -1.7270    1.3585   27.3772 N   0  0  0  0  0  0  0  0  0  0  0  0
   -1.8212    2.5664   26.7490 C   0  0  0  0  0  0  0  0  0  0  0  0
   -2.9459    3.2971   26.3689 C   0  0  0  0  0  0  0  0  0  0  0  0
   -2.7409    4.4834   25.6598 C   0  0  0  0  0  0  0  0  0  0  0  0
   -1.4607    4.9510   25.4094 C   0  0  0  0  0  0  0  0  0  0  0  0
   -1.2341    6.4249   24.5513 Cl  0  0  0  0  0  0  0  0  0  0  0  0
   -0.3506    4.2202   25.8255 C   0  0  0  0  0  0  0  0  0  0  0  0
   -0.5347    2.9838   26.4817 C   0  0  0  0  0  0  0  0  0  0  0  0
    2.5870    1.2929   29.5802 N   0  0  0  0  0  0  0  0  0  0  0  0
    2.9917    0.3608   30.6090 C   0  0  0  0  0  0  0  0  0  0  0  0
    2.1314    0.4516   31.8640 C   0  0  0  0  0  0  0  0  0  0  0  0
    0.7422    0.0780   31.6434 N   0  0  0  0  0  0  0  0  0  0  0  0
   -0.2099    0.8454   31.0464 C   0  0  0  0  0  0  0  0  0  0  0  0
   -1.3820    0.1655   31.2092 C   0  0  0  0  0  0  0  0  0  0  0  0
   -2.8962    0.6552   30.7183 Cl  0  0  0  0  0  0  0  0  0  0  0  0
   -1.0815   -0.9929   31.9400 C   0  0  0  0  0  0  0  0  0  0  0  0
   -2.0966   -1.9804   32.4278 C   0  0  0  0  0  0  0  0  0  0  0  0
   -1.5553   -3.0496   33.0566 F   0  0  0  0  0  0  0  0  0  0  0  0
   -2.8593   -2.4928   31.4144 F   0  0  0  0  0  0  0  0  0  0  0  0
   -2.9686   -1.3901   33.2912 F   0  0  0  0  0  0  0  0  0  0  0  0
    0.2407   -1.0433   32.2053 N   0  0  0  0  0  0  0  0  0  0  0  0
  1  2  2  0
  2  3  1  0
  3  4  1  0
  4  5  1  0
  5  6  2  0
  6  7  1  0
  7  8  2  0
  8  9  1  0
  9 10  2  0
 10 11  1  0
 10 12  1  0
 12 13  2  0
  6 14  1  0
 14 15  1  0
 15 16  2  0
 16 17  1  0
 17 18  2  0
 18 19  1  0
 18 20  1  0
 20 21  2  0
  2 22  1  0
 22 23  1  0
 23 24  1  0
 24 25  1  0
 25 26  1  0
 26 27  2  0
 27 28  1  0
 27 29  1  0
 29 30  1  0
 30 31  1  0
 30 32  1  0
 30 33  1  0
 29 34  2  0
 21  5  1  0
 34 25  1  0
 13  7  1  0
 21 15  1  0
M  END
>  <name>  (124) 
P61175

>  <HIPPO Compound ID>  (124) 
99256

>  <energy_score>  (124) 
-9.097203

>  <HIPPO Pose ID>  (124) 
61175

>  <inspiration_score>  (124) 
None

>  <ref_pdb>  (124) 
7go7-a

>  <inchikey>  (124) 
DLVSKCKVEKMHFB-UHFFFAOYSA-N

>  <alias>  (124) 
None

>  <distance_score>  (124) 
1.944614

>  <ref_mols>  (124) 
7goy-a,7gp2-a

>  <smiles>  (124) 
O=C(CCc1c(-c2ccc(Cl)cc2)[nH]c2ccc(Cl)cc12)NCCn1cc(Cl)c(C(F)(F)F)n1

$$$$
P61177
     RDKit          3D

 34 36  0  0  0  0  0  0  0  0999 V2000
   -7.0964    1.1773   34.8279 C   0  0  0  0  0  0  0  0  0  0  0  0
   -5.9891    0.3193   34.5231 N   0  0  0  0  0  0  0  0  0  0  0  0
   -4.6951    0.5941   33.7130 C   0  0  0  0  0  0  0  0  0  0  0  0
   -4.3681    1.5380   33.1045 O   0  0  0  0  0  0  0  0  0  0  0  0
   -3.8205   -0.6948   33.7755 C   0  0  2  0  0  0  0  0  0  0  0  0
   -3.0180   -0.8201   35.0771 C   0  0  0  0  0  0  0  0  0  0  0  0
   -3.6891   -0.4159   36.2926 N   0  0  0  0  0  0  0  0  0  0  0  0
   -3.3685    0.6613   37.0695 C   0  0  0  0  0  0  0  0  0  0  0  0
   -4.2364    0.6347   38.1304 C   0  0  0  0  0  0  0  0  0  0  0  0
   -4.3369    1.7064   39.4316 Cl  0  0  0  0  0  0  0  0  0  0  0  0
   -5.0415   -0.4945   37.9098 C   0  0  0  0  0  0  0  0  0  0  0  0
   -4.7243   -1.1378   36.7767 N   0  0  0  0  0  0  0  0  0  0  0  0
   -2.8755   -0.5902   32.6688 N   0  0  0  0  0  0  0  0  0  0  0  0
   -2.4293   -1.6454   31.6208 C   0  0  0  0  0  0  0  0  0  0  0  0
   -2.8072   -2.7359   31.4361 O   0  0  0  0  0  0  0  0  0  0  0  0
   -1.2220   -0.9900   30.8596 C   0  0  1  0  0  0  0  0  0  0  0  0
   -1.2894   -1.1840   29.3253 C   0  0  0  0  0  0  0  0  0  0  0  0
   -0.5569   -0.0902   28.5889 C   0  0  0  0  0  0  0  0  0  0  0  0
    0.7770    0.2367   28.7286 C   0  0  0  0  0  0  0  0  0  0  0  0
    0.9759    1.4687   28.1642 N   0  0  0  0  0  0  0  0  0  0  0  0
   -0.1786    1.9217   27.5801 C   0  0  0  0  0  0  0  0  0  0  0  0
   -0.4568    3.1309   26.9291 C   0  0  0  0  0  0  0  0  0  0  0  0
   -1.7240    3.2833   26.3606 C   0  0  0  0  0  0  0  0  0  0  0  0
   -2.6579    2.2548   26.4186 C   0  0  0  0  0  0  0  0  0  0  0  0
   -2.3551    1.0620   27.0841 C   0  0  0  0  0  0  0  0  0  0  0  0
   -1.1163    0.9015   27.7204 C   0  0  0  0  0  0  0  0  0  0  0  0
   -1.0112    0.4109   31.2507 N   0  0  0  0  0  0  0  0  0  0  0  0
   -0.0223    1.0253   32.2229 C   0  0  0  0  0  0  0  0  0  0  0  0
    0.7398    0.5245   32.9350 O   0  0  0  0  0  0  0  0  0  0  0  0
   -0.2060    2.3651   32.0948 O   0  0  0  0  0  0  0  0  0  0  0  0
    0.6558    3.3017   32.7971 C   0  0  0  0  0  0  0  0  0  0  0  0
    0.1762    4.6940   32.3592 C   0  0  0  0  0  0  0  0  0  0  0  0
    2.1187    3.1379   32.3666 C   0  0  0  0  0  0  0  0  0  0  0  0
    0.4852    3.1804   34.3155 C   0  0  0  0  0  0  0  0  0  0  0  0
  1  2  1  0
  2  3  1  0
  3  4  2  0
  3  5  1  0
  5  6  1  1
  6  7  1  0
  7  8  1  0
  8  9  2  0
  9 10  1  0
  9 11  1  0
 11 12  2  0
  5 13  1  0
 13 14  1  0
 14 15  2  0
 14 16  1  0
 16 17  1  6
 17 18  1  0
 18 19  2  0
 19 20  1  0
 20 21  1  0
 21 22  2  0
 22 23  1  0
 23 24  2  0
 24 25  1  0
 25 26  2  0
 16 27  1  0
 27 28  1  0
 28 29  2  0
 28 30  1  0
 30 31  1  0
 31 32  1  0
 31 33  1  0
 31 34  1  0
 12  7  1  0
 26 18  1  0
 26 21  1  0
M  END
>  <name>  (125) 
P61177

>  <HIPPO Compound ID>  (125) 
99271

>  <energy_score>  (125) 
-7.323796

>  <HIPPO Pose ID>  (125) 
61177

>  <inspiration_score>  (125) 
None

>  <ref_pdb>  (125) 
7go7-a

>  <inchikey>  (125) 
OAQMLEONKWGYQE-MOPGFXCFSA-N

>  <alias>  (125) 
None

>  <distance_score>  (125) 
1.163161

>  <ref_mols>  (125) 
7goy-a,7gp2-a

>  <smiles>  (125) 
CNC(=O)[C@H](Cn1cc(Cl)cn1)NC(=O)[C@@H](Cc1c[nH]c2ccccc12)NC(=O)OC(C)(C)C

$$$$
P61178
     RDKit          3D

 34 37  0  0  0  0  0  0  0  0999 V2000
   -1.9538   -0.8965   32.1561 C   0  0  0  0  0  0  0  0  0  0  0  0
   -1.2405   -1.3237   30.9212 C   0  0  0  0  0  0  0  0  0  0  0  0
   -1.4013   -2.5083   30.2395 C   0  0  0  0  0  0  0  0  0  0  0  0
   -0.5680   -2.4853   29.1122 C   0  0  0  0  0  0  0  0  0  0  0  0
    0.1311   -1.2983   29.1200 C   0  0  0  0  0  0  0  0  0  0  0  0
    1.1368   -0.8537   28.1104 C   0  0  0  0  0  0  0  0  0  0  0  0
   -0.2847   -0.5824   30.2344 N   0  0  0  0  0  0  0  0  0  0  0  0
    0.1557    0.7625   30.6205 C   0  0  2  0  0  0  0  0  0  0  0  0
   -0.7854    1.8601   30.1122 C   0  0  0  0  0  0  0  0  0  0  0  0
   -1.2047    1.8956   28.6615 C   0  0  0  0  0  0  0  0  0  0  0  0
   -1.9384    0.9315   28.0006 C   0  0  0  0  0  0  0  0  0  0  0  0
   -2.2354    1.3902   26.7548 N   0  0  0  0  0  0  0  0  0  0  0  0
   -1.7614    2.6641   26.5900 C   0  0  0  0  0  0  0  0  0  0  0  0
   -1.9195    3.5510   25.5210 C   0  0  0  0  0  0  0  0  0  0  0  0
   -1.3503    4.8210   25.6246 C   0  0  0  0  0  0  0  0  0  0  0  0
   -0.6510    5.1895   26.7647 C   0  0  0  0  0  0  0  0  0  0  0  0
   -0.5200    4.2939   27.8301 C   0  0  0  0  0  0  0  0  0  0  0  0
   -1.0817    3.0036   27.7525 C   0  0  0  0  0  0  0  0  0  0  0  0
    1.6330    1.0772   30.3604 C   0  0  0  0  0  0  0  0  0  0  0  0
    1.9718    2.0126   29.7441 O   0  0  0  0  0  0  0  0  0  0  0  0
    2.4790   -0.0516   31.0336 N   0  0  0  0  0  0  0  0  0  0  0  0
    3.7978   -0.2850   31.0023 N   0  0  0  0  0  0  0  0  0  0  0  0
    4.5934   -1.6255   31.1163 C   0  0  0  0  0  0  0  0  0  0  0  0
    4.2189   -2.7136   31.3319 O   0  0  0  0  0  0  0  0  0  0  0  0
    6.0469   -1.3032   30.7760 C   0  0  0  0  0  0  0  0  0  0  0  0
    6.0757   -0.6553   29.4682 N   0  0  0  0  0  0  0  0  0  0  0  0
    5.6105   -1.2046   28.3065 C   0  0  0  0  0  0  0  0  0  0  0  0
    5.2010   -0.1512   27.5194 C   0  0  0  0  0  0  0  0  0  0  0  0
    4.3059   -0.2793   26.0936 Cl  0  0  0  0  0  0  0  0  0  0  0  0
    5.5995    1.0029   28.2229 C   0  0  0  0  0  0  0  0  0  0  0  0
    5.4509    2.4064   27.8815 N   0  0  0  0  0  0  0  0  0  0  0  0
    5.6940    3.2443   28.7650 O   0  0  0  0  0  0  0  0  0  0  0  0
    5.1129    2.6784   26.7220 O   0  0  0  0  0  0  0  0  0  0  0  0
    6.1390    0.6945   29.4273 N   0  0  0  0  0  0  0  0  0  0  0  0
  1  2  1  0
  2  3  2  0
  3  4  1  0
  4  5  2  0
  5  6  1  0
  5  7  1  0
  7  8  1  0
  8  9  1  6
  9 10  1  0
 10 11  2  0
 11 12  1  0
 12 13  1  0
 13 14  2  0
 14 15  1  0
 15 16  2  0
 16 17  1  0
 17 18  2  0
  8 19  1  0
 19 20  2  0
 19 21  1  0
 21 22  1  0
 22 23  1  0
 23 24  2  0
 23 25  1  0
 25 26  1  0
 26 27  1  0
 27 28  2  0
 28 29  1  0
 28 30  1  0
 30 31  1  0
 31 32  2  0
 31 33  1  0
 30 34  2  0
  7  2  1  0
 18 10  1  0
 34 26  1  0
 18 13  1  0
M  CHG  2  31   1  33  -1
M  END
>  <name>  (126) 
P61178

>  <HIPPO Compound ID>  (126) 
99285

>  <energy_score>  (126) 
-9.776958

>  <HIPPO Pose ID>  (126) 
61178

>  <inspiration_score>  (126) 
None

>  <ref_pdb>  (126) 
7go7-a

>  <inchikey>  (126) 
RKVUYXQSGYJGLC-LJQANCHMSA-N

>  <alias>  (126) 
None

>  <distance_score>  (126) 
1.996323

>  <ref_mols>  (126) 
7goy-a,7gp2-a

>  <smiles>  (126) 
Cc1ccc(C)n1[C@H](Cc1c[nH]c2ccccc12)C(=O)NNC(=O)Cn1cc(Cl)c([N+](=O)[O-])n1

$$$$
P61179
     RDKit          3D

 34 38  0  0  0  0  0  0  0  0999 V2000
   -6.5314    0.2626   38.9858 C   0  0  0  0  0  0  0  0  0  0  0  0
   -5.7231    0.0364   37.7631 C   0  0  0  0  0  0  0  0  0  0  0  0
   -6.2717    0.1796   36.5541 N   0  0  0  0  0  0  0  0  0  0  0  0
   -5.2699   -0.0829   35.6785 N   0  0  0  0  0  0  0  0  0  0  0  0
   -5.6425   -0.0432   34.2593 C   0  0  2  0  0  0  0  0  0  0  0  0
   -6.4413   -1.2756   33.8356 C   0  0  0  0  0  0  0  0  0  0  0  0
   -4.5195    0.4016   33.3071 C   0  0  0  0  0  0  0  0  0  0  0  0
   -4.3202    1.5403   33.1151 O   0  0  0  0  0  0  0  0  0  0  0  0
   -3.8357   -0.8607   32.6966 N   0  0  0  0  0  0  0  0  0  0  0  0
   -2.7845   -0.9677   31.8619 N   0  0  0  0  0  0  0  0  0  0  0  0
   -2.1354   -2.2187   31.2162 C   0  0  0  0  0  0  0  0  0  0  0  0
   -2.4595   -3.3408   31.2473 O   0  0  0  0  0  0  0  0  0  0  0  0
   -0.9149   -1.7369   30.3835 C   0  0  1  0  0  0  0  0  0  0  0  0
   -1.3382   -1.1744   29.0086 C   0  0  0  0  0  0  0  0  0  0  0  0
   -1.0172    0.2659   28.8331 C   0  0  0  0  0  0  0  0  0  0  0  0
   -0.2073    0.9547   29.7041 C   0  0  0  0  0  0  0  0  0  0  0  0
   -0.0321    2.2213   29.2166 N   0  0  0  0  0  0  0  0  0  0  0  0
   -0.8496    2.4249   28.1371 C   0  0  0  0  0  0  0  0  0  0  0  0
   -1.1061    3.6014   27.4251 C   0  0  0  0  0  0  0  0  0  0  0  0
   -2.0651    3.5416   26.4169 C   0  0  0  0  0  0  0  0  0  0  0  0
   -2.6996    2.3427   26.1117 C   0  0  0  0  0  0  0  0  0  0  0  0
   -2.3767    1.1598   26.7892 C   0  0  0  0  0  0  0  0  0  0  0  0
   -1.4674    1.2051   27.8579 C   0  0  0  0  0  0  0  0  0  0  0  0
    0.3431    0.4940   30.9965 C   0  0  2  0  0  0  0  0  0  0  0  0
   -0.1914    1.3722   32.1508 C   0  0  0  0  0  0  0  0  0  0  0  0
    1.8716    0.4565   31.0392 C   0  0  0  0  0  0  0  0  0  0  0  0
    2.1601   -0.5926   32.1100 C   0  0  0  0  0  0  0  0  0  0  0  0
    1.0231   -1.5629   31.9101 C   0  0  0  0  0  0  0  0  0  0  0  0
    1.0149   -2.7255   32.2781 O   0  0  0  0  0  0  0  0  0  0  0  0
    0.0011   -0.9111   31.2102 N   0  0  0  0  0  0  0  0  0  0  0  0
   -4.0993   -0.4419   36.3140 C   0  0  0  0  0  0  0  0  0  0  0  0
   -2.8288   -0.8290   35.6514 C   0  0  0  0  0  0  0  0  0  0  0  0
   -4.3749   -0.3543   37.6656 C   0  0  0  0  0  0  0  0  0  0  0  0
   -3.3376   -0.6675   38.9716 Cl  0  0  0  0  0  0  0  0  0  0  0  0
  1  2  1  0
  2  3  2  0
  3  4  1  0
  4  5  1  0
  5  6  1  6
  5  7  1  0
  7  8  2  0
  7  9  1  0
  9 10  1  0
 10 11  1  0
 11 12  2  0
 13 11  1  1
 13 14  1  0
 14 15  1  0
 15 16  2  0
 16 17  1  0
 17 18  1  0
 18 19  2  0
 19 20  1  0
 20 21  2  0
 21 22  1  0
 22 23  2  0
 16 24  1  0
 24 25  1  1
 24 26  1  0
 26 27  1  0
 27 28  1  0
 28 29  2  0
 28 30  1  0
  4 31  1  0
 31 32  1  0
 31 33  2  0
 33 34  1  0
 33  2  1  0
 30 13  1  0
 23 15  1  0
 30 24  1  0
 23 18  1  0
M  END
>  <name>  (127) 
P61179

>  <HIPPO Compound ID>  (127) 
99288

>  <energy_score>  (127) 
-21.477763

>  <HIPPO Pose ID>  (127) 
61179

>  <inspiration_score>  (127) 
None

>  <ref_pdb>  (127) 
7go7-a

>  <inchikey>  (127) 
OROUTVBINIJYDD-NLWZSEAUSA-N

>  <alias>  (127) 
None

>  <distance_score>  (127) 
1.221522

>  <ref_mols>  (127) 
7goy-a,7gp2-a

>  <smiles>  (127) 
Cc1nn([C@H](C)C(=O)NNC(=O)[C@H]2Cc3c([nH]c4ccccc34)[C@]3(C)CCC(=O)N23)c(C)c1Cl

$$$$
P61187
     RDKit          3D

 34 38  0  0  0  0  0  0  0  0999 V2000
   -7.4945   -0.2353   38.7371 C   0  0  0  0  0  0  0  0  0  0  0  0
   -7.1136   -0.4089   37.3144 C   0  0  0  0  0  0  0  0  0  0  0  0
   -5.8289   -0.3426   36.9469 N   0  0  0  0  0  0  0  0  0  0  0  0
   -5.8513   -0.4779   35.6022 N   0  0  0  0  0  0  0  0  0  0  0  0
   -4.6757   -0.0170   34.8539 C   0  0  1  0  0  0  0  0  0  0  0  0
   -3.9796   -1.1712   34.0883 C   0  0  0  0  0  0  0  0  0  0  0  0
   -3.0848   -0.7580   33.0334 N   0  0  0  0  0  0  0  0  0  0  0  0
   -2.6580   -1.4876   31.7274 C   0  0  0  0  0  0  0  0  0  0  0  0
   -3.0254   -2.5001   31.2702 O   0  0  0  0  0  0  0  0  0  0  0  0
   -1.6446   -0.5232   30.9974 C   0  0  2  0  0  0  0  0  0  0  0  0
   -1.5472   -0.9409   29.4938 C   0  0  0  0  0  0  0  0  0  0  0  0
   -0.8364    0.1743   28.8161 C   0  0  0  0  0  0  0  0  0  0  0  0
    0.2950    0.6733   29.4181 C   0  0  0  0  0  0  0  0  0  0  0  0
    0.6688    1.7972   28.7340 N   0  0  0  0  0  0  0  0  0  0  0  0
   -0.3094    2.1322   27.8240 C   0  0  0  0  0  0  0  0  0  0  0  0
   -0.4706    3.2940   27.0588 C   0  0  0  0  0  0  0  0  0  0  0  0
   -1.6024    3.3807   26.2440 C   0  0  0  0  0  0  0  0  0  0  0  0
   -2.5108    2.3297   26.1689 C   0  0  0  0  0  0  0  0  0  0  0  0
   -2.3101    1.1616   26.9115 C   0  0  0  0  0  0  0  0  0  0  0  0
   -1.2197    1.0740   27.7902 C   0  0  0  0  0  0  0  0  0  0  0  0
    0.8600    0.1445   30.7040 C   0  0  1  0  0  0  0  0  0  0  0  0
    1.7706   -1.0653   30.4510 C   0  0  0  0  0  0  0  0  0  0  0  0
    1.6006    1.2169   31.5135 C   0  0  0  0  0  0  0  0  0  0  0  0
    1.2999    0.8471   32.9510 C   0  0  0  0  0  0  0  0  0  0  0  0
   -0.1156    0.3626   32.8273 C   0  0  0  0  0  0  0  0  0  0  0  0
   -0.9659    0.5165   33.6888 O   0  0  0  0  0  0  0  0  0  0  0  0
   -0.2843   -0.2403   31.5805 N   0  0  0  0  0  0  0  0  0  0  0  0
   -4.9734    1.2961   34.0514 C   0  0  0  0  0  0  0  0  0  0  0  0
   -3.7073    2.1743   33.9543 C   0  0  0  0  0  0  0  0  0  0  0  0
   -6.0327    2.2145   34.7016 C   0  0  0  0  0  0  0  0  0  0  0  0
   -7.1030   -0.7866   35.1204 C   0  0  0  0  0  0  0  0  0  0  0  0
   -7.4033   -1.0556   33.6953 C   0  0  0  0  0  0  0  0  0  0  0  0
   -7.9478   -0.6777   36.2075 C   0  0  0  0  0  0  0  0  0  0  0  0
   -9.6347   -0.8555   36.2432 Cl  0  0  0  0  0  0  0  0  0  0  0  0
  1  2  1  0
  2  3  2  0
  3  4  1  0
  4  5  1  0
  5  6  1  6
  6  7  1  0
  7  8  1  0
  8  9  2  0
 10  8  1  1
 10 11  1  0
 11 12  1  0
 12 13  2  0
 13 14  1  0
 14 15  1  0
 15 16  2  0
 16 17  1  0
 17 18  2  0
 18 19  1  0
 19 20  2  0
 13 21  1  0
 21 22  1  6
 21 23  1  0
 23 24  1  0
 24 25  1  0
 25 26  2  0
 25 27  1  0
  5 28  1  0
 28 29  1  0
 28 30  1  0
  4 31  1  0
 31 32  1  0
 31 33  2  0
 33 34  1  0
 33  2  1  0
 27 10  1  0
 20 12  1  0
 27 21  1  0
 20 15  1  0
M  END
>  <name>  (128) 
P61187

>  <HIPPO Compound ID>  (128) 
99289

>  <energy_score>  (128) 
-60.910253

>  <HIPPO Pose ID>  (128) 
61187

>  <inspiration_score>  (128) 
None

>  <ref_pdb>  (128) 
7go7-a

>  <inchikey>  (128) 
BGBNKICXBGPCQK-ISJBWFOZSA-N

>  <alias>  (128) 
None

>  <distance_score>  (128) 
0.904243

>  <ref_mols>  (128) 
7goy-a,7gp2-a

>  <smiles>  (128) 
Cc1nn([C@@H](CNC(=O)[C@@H]2Cc3c([nH]c4ccccc34)[C@@]3(C)CCC(=O)N23)C(C)C)c(C)c1Cl

$$$$
P61190
     RDKit          3D

 34 37  0  0  0  0  0  0  0  0999 V2000
   -1.5893    5.8141   25.6146 C   0  0  0  0  0  0  0  0  0  0  0  0
   -1.9523    4.4552   25.3927 O   0  0  0  0  0  0  0  0  0  0  0  0
   -1.6048    3.5776   26.3813 C   0  0  0  0  0  0  0  0  0  0  0  0
   -0.6025    3.7718   27.3331 C   0  0  0  0  0  0  0  0  0  0  0  0
   -0.3575    2.7967   28.3091 C   0  0  0  0  0  0  0  0  0  0  0  0
   -1.1058    1.6182   28.3305 C   0  0  0  0  0  0  0  0  0  0  0  0
   -0.9811    0.6477   29.4127 C   0  0  0  0  0  0  0  0  0  0  0  0
   -1.2379    0.9924   30.7156 N   0  0  0  0  0  0  0  0  0  0  0  0
   -1.3796   -0.1237   31.4990 C   0  0  0  0  0  0  0  0  0  0  0  0
   -1.7847   -0.2410   32.8341 C   0  0  0  0  0  0  0  0  0  0  0  0
   -1.8312   -1.5243   33.3753 C   0  0  0  0  0  0  0  0  0  0  0  0
   -1.4649   -2.6204   32.6078 C   0  0  0  0  0  0  0  0  0  0  0  0
   -1.5111   -3.8402   33.1526 F   0  0  0  0  0  0  0  0  0  0  0  0
   -1.0558   -2.4960   31.2811 C   0  0  0  0  0  0  0  0  0  0  0  0
   -1.0237   -1.2133   30.7060 C   0  0  0  0  0  0  0  0  0  0  0  0
   -0.7123   -0.7131   29.4000 C   0  0  0  0  0  0  0  0  0  0  0  0
   -0.2700   -1.5199   28.2187 C   0  0  0  0  0  0  0  0  0  0  0  0
    1.1510   -2.0642   28.3315 C   0  0  0  0  0  0  0  0  0  0  0  0
    2.2429   -1.0392   28.0083 C   0  0  0  0  0  0  0  0  0  0  0  0
    1.9831    0.1024   27.7631 O   0  0  0  0  0  0  0  0  0  0  0  0
    3.5159   -1.7217   28.0891 N   0  0  0  0  0  0  0  0  0  0  0  0
    4.7734   -1.2529   27.9999 N   0  0  0  0  0  0  0  0  0  0  0  0
    5.6221   -0.6286   28.9871 C   0  0  0  0  0  0  0  0  0  0  0  0
    5.4516   -0.4398   30.1612 O   0  0  0  0  0  0  0  0  0  0  0  0
    6.9307   -0.1105   28.3715 C   0  0  2  0  0  0  0  0  0  0  0  0
    6.6539    0.9591   27.3130 C   0  0  0  0  0  0  0  0  0  0  0  0
    7.8003   -1.2006   27.9400 N   0  0  0  0  0  0  0  0  0  0  0  0
    7.9946   -2.3979   28.5783 C   0  0  0  0  0  0  0  0  0  0  0  0
    8.9447   -3.0681   27.8504 C   0  0  0  0  0  0  0  0  0  0  0  0
    9.5787   -4.6098   28.1302 Cl  0  0  0  0  0  0  0  0  0  0  0  0
    9.3023   -2.1829   26.8216 C   0  0  0  0  0  0  0  0  0  0  0  0
    8.6307   -1.0280   26.8862 N   0  0  0  0  0  0  0  0  0  0  0  0
   -2.0700    1.4076   27.3391 C   0  0  0  0  0  0  0  0  0  0  0  0
   -2.3287    2.3874   26.3821 C   0  0  0  0  0  0  0  0  0  0  0  0
  1  2  1  0
  2  3  1  0
  3  4  2  0
  4  5  1  0
  5  6  2  0
  6  7  1  0
  7  8  1  0
  8  9  1  0
  9 10  2  0
 10 11  1  0
 11 12  2  0
 12 13  1  0
 12 14  1  0
 14 15  2  0
 15 16  1  0
 16 17  1  0
 17 18  1  0
 18 19  1  0
 19 20  2  0
 19 21  1  0
 21 22  1  0
 22 23  1  0
 23 24  2  0
 23 25  1  0
 25 26  1  6
 25 27  1  0
 27 28  1  0
 28 29  2  0
 29 30  1  0
 29 31  1  0
 31 32  2  0
  6 33  1  0
 33 34  2  0
 34  3  1  0
 16  7  2  0
 32 27  1  0
 15  9  1  0
M  END
>  <name>  (129) 
P61190

>  <HIPPO Compound ID>  (129) 
99319

>  <energy_score>  (129) 
-31.545842

>  <HIPPO Pose ID>  (129) 
61190

>  <inspiration_score>  (129) 
None

>  <ref_pdb>  (129) 
7go7-a

>  <inchikey>  (129) 
LDNZNWHCEOJTSJ-AWEZNQCLSA-N

>  <alias>  (129) 
None

>  <distance_score>  (129) 
1.876125

>  <ref_mols>  (129) 
7goy-a,7gp2-a

>  <smiles>  (129) 
COc1ccc(-c2[nH]c3ccc(F)cc3c2CCC(=O)NNC(=O)[C@H](C)n2cc(Cl)cn2)cc1

$$$$
P61192
     RDKit          3D

 34 36  0  0  0  0  0  0  0  0999 V2000
    1.1258   -0.8121   28.3896 C   0  0  0  0  0  0  0  0  0  0  0  0
    0.3577   -0.8745   29.6637 C   0  0  0  0  0  0  0  0  0  0  0  0
   -0.9586   -1.2081   29.8748 C   0  0  0  0  0  0  0  0  0  0  0  0
   -2.0385   -1.6925   28.6798 Cl  0  0  0  0  0  0  0  0  0  0  0  0
   -1.1908   -1.0696   31.2614 C   0  0  0  0  0  0  0  0  0  0  0  0
   -2.4601   -1.3811   31.9978 C   0  0  0  0  0  0  0  0  0  0  0  0
   -2.4222   -1.0646   33.3185 F   0  0  0  0  0  0  0  0  0  0  0  0
   -2.7761   -2.7041   31.9144 F   0  0  0  0  0  0  0  0  0  0  0  0
   -3.5164   -0.6929   31.4892 F   0  0  0  0  0  0  0  0  0  0  0  0
   -0.0802   -0.6077   31.8728 N   0  0  0  0  0  0  0  0  0  0  0  0
    0.8736   -0.6274   30.9145 N   0  0  0  0  0  0  0  0  0  0  0  0
    2.2714   -0.3588   31.2824 C   0  0  2  0  0  0  0  0  0  0  0  0
    2.5419   -0.2234   32.7813 C   0  0  0  0  0  0  0  0  0  0  0  0
    2.7741    0.8665   30.5248 C   0  0  0  0  0  0  0  0  0  0  0  0
    3.6868    0.8113   29.7963 O   0  0  0  0  0  0  0  0  0  0  0  0
    1.8078    2.0431   30.8418 N   0  0  0  0  0  0  0  0  0  0  0  0
    1.7178    3.2585   30.3011 N   0  0  0  0  0  0  0  0  0  0  0  0
    0.6237    4.3448   30.4462 C   0  0  0  0  0  0  0  0  0  0  0  0
   -0.3275    4.3741   31.1208 O   0  0  0  0  0  0  0  0  0  0  0  0
    0.9510    5.4149   29.4138 C   0  0  0  0  0  0  0  0  0  0  0  0
    0.6098    5.1005   27.9288 C   0  0  2  0  0  0  0  0  0  0  0  0
   -0.4280    4.0209   27.6153 C   0  0  0  0  0  0  0  0  0  0  0  0
   -0.6105    2.7600   28.1527 C   0  0  0  0  0  0  0  0  0  0  0  0
   -1.7205    2.1835   27.5904 N   0  0  0  0  0  0  0  0  0  0  0  0
   -2.2293    3.0032   26.6160 C   0  0  0  0  0  0  0  0  0  0  0  0
   -3.3437    2.8492   25.7892 C   0  0  0  0  0  0  0  0  0  0  0  0
   -3.5807    3.8355   24.8248 C   0  0  0  0  0  0  0  0  0  0  0  0
   -2.7426    4.9337   24.7053 C   0  0  0  0  0  0  0  0  0  0  0  0
   -3.0328    6.1925   23.3222 Br  0  0  0  0  0  0  0  0  0  0  0  0
   -1.6812    5.1138   25.5895 C   0  0  0  0  0  0  0  0  0  0  0  0
   -1.4149    4.1331   26.5697 C   0  0  0  0  0  0  0  0  0  0  0  0
    1.8201    5.0240   26.9399 C   0  0  0  0  0  0  0  0  0  0  0  0
    2.5726    6.3582   26.8516 C   0  0  0  0  0  0  0  0  0  0  0  0
    2.8109    3.8920   27.2031 C   0  0  0  0  0  0  0  0  0  0  0  0
  1  2  1  0
  2  3  2  0
  3  4  1  0
  3  5  1  0
  5  6  1  0
  6  7  1  0
  6  8  1  0
  6  9  1  0
  5 10  2  0
 10 11  1  0
 11 12  1  0
 12 13  1  1
 12 14  1  0
 14 15  2  0
 14 16  1  0
 16 17  1  0
 17 18  1  0
 18 19  2  0
 18 20  1  0
 21 20  1  1
 21 22  1  0
 22 23  2  0
 23 24  1  0
 24 25  1  0
 25 26  2  0
 26 27  1  0
 27 28  2  0
 28 29  1  0
 28 30  1  0
 30 31  2  0
 21 32  1  0
 32 33  1  0
 32 34  1  0
 11  2  1  0
 31 22  1  0
 31 25  1  0
M  END
>  <name>  (130) 
P61192

>  <HIPPO Compound ID>  (130) 
99335

>  <energy_score>  (130) 
-25.489012

>  <HIPPO Pose ID>  (130) 
61192

>  <inspiration_score>  (130) 
None

>  <ref_pdb>  (130) 
7go7-a

>  <inchikey>  (130) 
VZXSUZNAZLUGOK-OCCSQVGLSA-N

>  <alias>  (130) 
None

>  <distance_score>  (130) 
1.031845

>  <ref_mols>  (130) 
7goy-a,7gp2-a

>  <smiles>  (130) 
Cc1c(Cl)c(C(F)(F)F)nn1[C@H](C)C(=O)NNC(=O)C[C@H](c1c[nH]c2ccc(Br)cc12)C(C)C

$$$$
P61195
     RDKit          3D

 34 37  0  0  0  0  0  0  0  0999 V2000
    3.5575    4.1583   27.7049 C   0  0  0  0  0  0  0  0  0  0  0  0
    2.4800    5.1978   27.3875 C   0  0  0  0  0  0  0  0  0  0  0  0
    2.2253    5.2196   25.8738 C   0  0  0  0  0  0  0  0  0  0  0  0
    1.1547    5.0550   28.2002 C   0  0  2  0  0  0  0  0  0  0  0  0
    1.3434    5.3670   29.7171 C   0  0  0  0  0  0  0  0  0  0  0  0
    0.7392    4.3627   30.6972 C   0  0  0  0  0  0  0  0  0  0  0  0
   -0.3351    4.4691   31.1412 O   0  0  0  0  0  0  0  0  0  0  0  0
    1.7798    3.2205   30.8454 N   0  0  0  0  0  0  0  0  0  0  0  0
    1.6812    2.0279   31.4449 N   0  0  0  0  0  0  0  0  0  0  0  0
    2.6848    0.8391   31.5004 C   0  0  0  0  0  0  0  0  0  0  0  0
    3.7790    0.7519   31.0968 O   0  0  0  0  0  0  0  0  0  0  0  0
    1.9582   -0.3399   32.1152 C   0  0  0  0  0  0  0  0  0  0  0  0
    0.7041   -0.6092   31.4256 N   0  0  0  0  0  0  0  0  0  0  0  0
   -0.4453   -0.2740   32.0491 N   0  0  0  0  0  0  0  0  0  0  0  0
   -1.4023   -0.8536   31.2989 C   0  0  0  0  0  0  0  0  0  0  0  0
   -2.8233   -0.9295   31.7513 C   0  0  0  0  0  0  0  0  0  0  0  0
   -2.9642   -0.7550   33.0947 F   0  0  0  0  0  0  0  0  0  0  0  0
   -3.3844   -2.1420   31.4710 F   0  0  0  0  0  0  0  0  0  0  0  0
   -0.8613   -1.3340   30.0822 C   0  0  0  0  0  0  0  0  0  0  0  0
   -1.7134   -2.0098   28.7959 Cl  0  0  0  0  0  0  0  0  0  0  0  0
    0.4997   -1.1935   30.2068 C   0  0  0  0  0  0  0  0  0  0  0  0
    1.5757   -1.7939   29.2641 C   0  0  0  0  0  0  0  0  0  0  0  0
    2.6385   -0.9217   28.6559 C   0  0  0  0  0  0  0  0  0  0  0  0
    1.5795   -1.5247   27.7894 C   0  0  0  0  0  0  0  0  0  0  0  0
    0.3441    3.8141   27.8551 C   0  0  0  0  0  0  0  0  0  0  0  0
    0.6242    2.4940   28.1494 C   0  0  0  0  0  0  0  0  0  0  0  0
   -0.4340    1.7144   27.7817 N   0  0  0  0  0  0  0  0  0  0  0  0
   -1.3660    2.4792   27.1364 C   0  0  0  0  0  0  0  0  0  0  0  0
   -2.6033    2.1183   26.6202 C   0  0  0  0  0  0  0  0  0  0  0  0
   -3.3585    3.1467   26.0669 C   0  0  0  0  0  0  0  0  0  0  0  0
   -5.1606    2.8272   25.6846 Br  0  0  0  0  0  0  0  0  0  0  0  0
   -2.8582    4.4281   25.8946 C   0  0  0  0  0  0  0  0  0  0  0  0
   -1.6240    4.7696   26.4310 C   0  0  0  0  0  0  0  0  0  0  0  0
   -0.8790    3.7866   27.1064 C   0  0  0  0  0  0  0  0  0  0  0  0
  1  2  1  0
  2  3  1  0
  2  4  1  0
  4  5  1  1
  5  6  1  0
  6  7  2  0
  6  8  1  0
  8  9  1  0
  9 10  1  0
 10 11  2  0
 10 12  1  0
 12 13  1  0
 13 14  1  0
 14 15  2  0
 15 16  1  0
 16 17  1  0
 16 18  1  0
 15 19  1  0
 19 20  1  0
 19 21  2  0
 21 22  1  0
 22 23  1  0
 23 24  1  0
  4 25  1  0
 25 26  2  0
 26 27  1  0
 27 28  1  0
 28 29  2  0
 29 30  1  0
 30 31  1  0
 30 32  2  0
 32 33  1  0
 33 34  2  0
 21 13  1  0
 24 22  1  0
 34 25  1  0
 34 28  1  0
M  END
>  <name>  (131) 
P61195

>  <HIPPO Compound ID>  (131) 
99338

>  <energy_score>  (131) 
-21.601004

>  <HIPPO Pose ID>  (131) 
61195

>  <inspiration_score>  (131) 
None

>  <ref_pdb>  (131) 
7go7-a

>  <inchikey>  (131) 
PPKKJDUNRYPRGK-HNNXBMFYSA-N

>  <alias>  (131) 
None

>  <distance_score>  (131) 
1.619269

>  <ref_mols>  (131) 
7goy-a,7gp2-a

>  <smiles>  (131) 
CC(C)[C@H](CC(=O)NNC(=O)Cn1nc(C(F)F)c(Cl)c1C1CC1)c1c[nH]c2cc(Br)ccc12

$$$$
P61196
     RDKit          3D

 34 36  0  0  0  0  0  0  0  0999 V2000
    1.0231    0.7869   30.2259 C   0  0  0  0  0  0  0  0  0  0  0  0
   -0.1277   -0.1003   30.4782 C   0  0  0  0  0  0  0  0  0  0  0  0
   -0.9650   -0.1563   31.5666 C   0  0  0  0  0  0  0  0  0  0  0  0
   -0.9392    0.8461   32.9378 Cl  0  0  0  0  0  0  0  0  0  0  0  0
   -1.7959   -1.2672   31.3554 C   0  0  0  0  0  0  0  0  0  0  0  0
   -2.7475   -1.8500   32.3366 C   0  0  0  0  0  0  0  0  0  0  0  0
   -3.4356   -0.9063   33.0307 F   0  0  0  0  0  0  0  0  0  0  0  0
   -3.6762   -2.6570   31.7520 F   0  0  0  0  0  0  0  0  0  0  0  0
   -2.0702   -2.6058   33.2337 F   0  0  0  0  0  0  0  0  0  0  0  0
   -1.5430   -1.8346   30.1636 N   0  0  0  0  0  0  0  0  0  0  0  0
   -0.5679   -1.0771   29.6238 N   0  0  0  0  0  0  0  0  0  0  0  0
   -0.1233   -1.3706   28.2572 C   0  0  2  0  0  0  0  0  0  0  0  0
    1.1398   -2.2232   28.2427 C   0  0  0  0  0  0  0  0  0  0  0  0
   -0.1819   -0.0483   27.4692 C   0  0  0  0  0  0  0  0  0  0  0  0
   -1.2216    0.3905   27.1504 O   0  0  0  0  0  0  0  0  0  0  0  0
    1.2547    0.5444   27.3191 N   0  0  0  0  0  0  0  0  0  0  0  0
    1.6600    1.7418   26.8696 N   0  0  0  0  0  0  0  0  0  0  0  0
    2.7968    2.6743   27.3698 C   0  0  0  0  0  0  0  0  0  0  0  0
    3.6024    2.5076   28.1991 O   0  0  0  0  0  0  0  0  0  0  0  0
    2.6608    3.9964   26.6133 C   0  0  0  0  0  0  0  0  0  0  0  0
    1.5359    4.9469   27.0858 C   0  0  1  0  0  0  0  0  0  0  0  0
    0.1523    4.3208   27.0226 C   0  0  0  0  0  0  0  0  0  0  0  0
   -0.5389    3.6651   28.0230 C   0  0  0  0  0  0  0  0  0  0  0  0
   -1.7228    3.2111   27.5099 N   0  0  0  0  0  0  0  0  0  0  0  0
   -1.8754    3.6494   26.2187 C   0  0  0  0  0  0  0  0  0  0  0  0
   -2.9537    3.5463   25.3419 C   0  0  0  0  0  0  0  0  0  0  0  0
   -4.5515    2.7635   25.9057 Br  0  0  0  0  0  0  0  0  0  0  0  0
   -2.8393    4.0740   24.0560 C   0  0  0  0  0  0  0  0  0  0  0  0
   -1.6684    4.7070   23.6645 C   0  0  0  0  0  0  0  0  0  0  0  0
   -0.6067    4.8391   24.5660 C   0  0  0  0  0  0  0  0  0  0  0  0
   -0.7060    4.3127   25.8708 C   0  0  0  0  0  0  0  0  0  0  0  0
    1.7968    5.7551   28.3949 C   0  0  0  0  0  0  0  0  0  0  0  0
    2.3318    4.9537   29.5814 C   0  0  0  0  0  0  0  0  0  0  0  0
    2.7518    6.9294   28.1290 C   0  0  0  0  0  0  0  0  0  0  0  0
  1  2  1  0
  2  3  2  0
  3  4  1  0
  3  5  1  0
  5  6  1  0
  6  7  1  0
  6  8  1  0
  6  9  1  0
  5 10  2  0
 10 11  1  0
 11 12  1  0
 12 13  1  1
 12 14  1  0
 14 15  2  0
 14 16  1  0
 16 17  1  0
 17 18  1  0
 18 19  2  0
 18 20  1  0
 21 20  1  1
 21 22  1  0
 22 23  2  0
 23 24  1  0
 24 25  1  0
 25 26  2  0
 26 27  1  0
 26 28  1  0
 28 29  2  0
 29 30  1  0
 30 31  2  0
 21 32  1  0
 32 33  1  0
 32 34  1  0
 11  2  1  0
 31 22  1  0
 31 25  1  0
M  END
>  <name>  (132) 
P61196

>  <HIPPO Compound ID>  (132) 
99339

>  <energy_score>  (132) 
-1.459847

>  <HIPPO Pose ID>  (132) 
61196

>  <inspiration_score>  (132) 
None

>  <ref_pdb>  (132) 
7go7-a

>  <inchikey>  (132) 
BWIGKUXCKSIIEI-TZMCWYRMSA-N

>  <alias>  (132) 
None

>  <distance_score>  (132) 
1.979405

>  <ref_mols>  (132) 
7goy-a,7gp2-a

>  <smiles>  (132) 
Cc1c(Cl)c(C(F)(F)F)nn1[C@H](C)C(=O)NNC(=O)C[C@@H](c1c[nH]c2c(Br)cccc12)C(C)C

$$$$
P61197
     RDKit          3D

 34 37  0  0  0  0  0  0  0  0999 V2000
   -2.1398    3.7930   22.8933 C   0  0  0  0  0  0  0  0  0  0  0  0
   -2.1466    5.0100   23.8185 C   0  0  0  0  0  0  0  0  0  0  0  0
   -3.3498    5.8879   23.4558 C   0  0  0  0  0  0  0  0  0  0  0  0
   -2.1155    4.7024   25.3494 C   0  0  1  0  0  0  0  0  0  0  0  0
   -3.2053    3.7255   25.8857 C   0  0  0  0  0  0  0  0  0  0  0  0
   -2.6298    2.4337   26.4740 C   0  0  0  0  0  0  0  0  0  0  0  0
   -2.6645    1.4057   25.9206 O   0  0  0  0  0  0  0  0  0  0  0  0
   -1.9549    2.8325   27.8169 N   0  0  0  0  0  0  0  0  0  0  0  0
   -1.1650    2.1230   28.6404 N   0  0  0  0  0  0  0  0  0  0  0  0
   -0.3297    2.5750   29.8882 C   0  0  0  0  0  0  0  0  0  0  0  0
   -0.2701    3.6160   30.4258 O   0  0  0  0  0  0  0  0  0  0  0  0
    0.5680    1.4432   30.3205 C   0  0  0  0  0  0  0  0  0  0  0  0
   -0.1290    0.1870   30.4059 N   0  0  0  0  0  0  0  0  0  0  0  0
   -1.1384    0.0606   31.2833 N   0  0  0  0  0  0  0  0  0  0  0  0
   -1.5750   -1.2006   31.1054 C   0  0  0  0  0  0  0  0  0  0  0  0
   -2.7321   -1.7040   31.9018 C   0  0  0  0  0  0  0  0  0  0  0  0
   -2.5638   -1.4992   33.2354 F   0  0  0  0  0  0  0  0  0  0  0  0
   -2.9447   -3.0379   31.7296 F   0  0  0  0  0  0  0  0  0  0  0  0
   -0.8338   -1.8495   30.0835 C   0  0  0  0  0  0  0  0  0  0  0  0
   -0.9742   -3.4388   29.5344 Cl  0  0  0  0  0  0  0  0  0  0  0  0
    0.0391   -0.9027   29.6076 C   0  0  0  0  0  0  0  0  0  0  0  0
    0.9616   -1.0334   28.3626 C   0  0  0  0  0  0  0  0  0  0  0  0
    2.4409   -0.7698   28.4835 C   0  0  0  0  0  0  0  0  0  0  0  0
    1.9496   -2.1686   28.2830 C   0  0  0  0  0  0  0  0  0  0  0  0
   -0.7221    4.3421   25.8349 C   0  0  0  0  0  0  0  0  0  0  0  0
    0.0253    3.2452   25.4544 C   0  0  0  0  0  0  0  0  0  0  0  0
    1.1002    3.1288   26.2878 N   0  0  0  0  0  0  0  0  0  0  0  0
    1.1506    4.2025   27.1420 C   0  0  0  0  0  0  0  0  0  0  0  0
    2.0992    4.5500   28.1117 C   0  0  0  0  0  0  0  0  0  0  0  0
    3.6231    3.4785   28.4254 Br  0  0  0  0  0  0  0  0  0  0  0  0
    1.8868    5.7079   28.8612 C   0  0  0  0  0  0  0  0  0  0  0  0
    0.7527    6.4876   28.6492 C   0  0  0  0  0  0  0  0  0  0  0  0
   -0.1859    6.1365   27.6712 C   0  0  0  0  0  0  0  0  0  0  0  0
    0.0200    4.9840   26.8849 C   0  0  0  0  0  0  0  0  0  0  0  0
  1  2  1  0
  2  3  1  0
  2  4  1  0
  4  5  1  6
  5  6  1  0
  6  7  2  0
  6  8  1  0
  8  9  1  0
  9 10  1  0
 10 11  2  0
 10 12  1  0
 12 13  1  0
 13 14  1  0
 14 15  2  0
 15 16  1  0
 16 17  1  0
 16 18  1  0
 15 19  1  0
 19 20  1  0
 19 21  2  0
 21 22  1  0
 22 23  1  0
 23 24  1  0
  4 25  1  0
 25 26  2  0
 26 27  1  0
 27 28  1  0
 28 29  2  0
 29 30  1  0
 29 31  1  0
 31 32  2  0
 32 33  1  0
 33 34  2  0
 21 13  1  0
 24 22  1  0
 34 25  1  0
 34 28  1  0
M  END
>  <name>  (133) 
P61197

>  <HIPPO Compound ID>  (133) 
99340

>  <energy_score>  (133) 
-17.872099

>  <HIPPO Pose ID>  (133) 
61197

>  <inspiration_score>  (133) 
None

>  <ref_pdb>  (133) 
7go7-a

>  <inchikey>  (133) 
NFFZUMJQNAWZTM-CQSZACIVSA-N

>  <alias>  (133) 
None

>  <distance_score>  (133) 
1.829798

>  <ref_mols>  (133) 
7goy-a,7gp2-a

>  <smiles>  (133) 
CC(C)[C@@H](CC(=O)NNC(=O)Cn1nc(C(F)F)c(Cl)c1C1CC1)c1c[nH]c2c(Br)cccc12

$$$$
P61200
     RDKit          3D

 34 39  0  0  0  0  0  0  0  0999 V2000
    1.1694    3.1740   29.4889 C   0  0  0  0  0  0  0  0  0  0  0  0
    0.1126    2.3650   28.9296 N   0  0  0  0  0  0  0  0  0  0  0  0
   -0.3296    1.1789   29.4010 C   0  0  0  0  0  0  0  0  0  0  0  0
   -1.3451    0.7291   28.6140 C   0  0  0  0  0  0  0  0  0  0  0  0
   -1.5830    1.6725   27.6097 C   0  0  0  0  0  0  0  0  0  0  0  0
   -2.5154    1.7922   26.5674 C   0  0  0  0  0  0  0  0  0  0  0  0
   -2.5577    2.9644   25.8138 C   0  0  0  0  0  0  0  0  0  0  0  0
   -1.6611    3.9973   26.0655 C   0  0  0  0  0  0  0  0  0  0  0  0
   -0.6992    3.8937   27.0749 C   0  0  0  0  0  0  0  0  0  0  0  0
   -0.6761    2.7222   27.8446 C   0  0  0  0  0  0  0  0  0  0  0  0
   -1.9344   -0.4994   29.1537 C   0  0  0  0  0  0  0  0  0  0  0  0
   -0.8935   -0.9228   30.2136 C   0  0  2  0  0  0  0  0  0  0  0  0
   -1.4754   -1.6457   31.4163 C   0  0  0  0  0  0  0  0  0  0  0  0
   -1.0965   -2.7311   31.6368 O   0  0  0  0  0  0  0  0  0  0  0  0
   -2.4427   -0.7276   32.2287 N   0  0  0  0  0  0  0  0  0  0  0  0
   -3.0356   -0.9179   33.4690 C   0  0  0  0  0  0  0  0  0  0  0  0
   -4.3089   -0.5926   33.9091 C   0  0  0  0  0  0  0  0  0  0  0  0
   -5.6614   -0.0434   33.0559 Cl  0  0  0  0  0  0  0  0  0  0  0  0
   -4.3324   -0.8692   35.2828 C   0  0  0  0  0  0  0  0  0  0  0  0
   -3.1609   -1.3151   35.7263 N   0  0  0  0  0  0  0  0  0  0  0  0
   -2.4032   -1.4316   34.6029 N   0  0  0  0  0  0  0  0  0  0  0  0
   -1.0215   -1.8656   34.7203 C   0  0  1  0  0  0  0  0  0  0  0  0
   -0.3914   -1.9340   36.1240 C   0  0  0  0  0  0  0  0  0  0  0  0
    0.3698   -3.2613   36.1351 C   0  0  0  0  0  0  0  0  0  0  0  0
   -0.5069   -4.1242   35.3436 N   0  0  0  0  0  0  0  0  0  0  0  0
    0.1125   -5.3518   34.8459 C   0  0  0  0  0  0  0  0  0  0  0  0
   -0.8704   -6.2307   34.0913 C   0  0  0  0  0  0  0  0  0  0  0  0
   -0.8254   -6.3046   32.6944 C   0  0  0  0  0  0  0  0  0  0  0  0
   -1.6101   -7.2256   32.0045 C   0  0  0  0  0  0  0  0  0  0  0  0
   -2.4610   -8.0769   32.7043 C   0  0  0  0  0  0  0  0  0  0  0  0
   -2.5783   -7.9548   34.0870 C   0  0  0  0  0  0  0  0  0  0  0  0
   -1.8187   -7.0036   34.7661 C   0  0  0  0  0  0  0  0  0  0  0  0
   -0.8401   -3.2780   34.1942 C   0  0  0  0  0  0  0  0  0  0  0  0
   -0.0458    0.3403   30.5776 C   0  0  0  0  0  0  0  0  0  0  0  0
  1  2  1  0
  2  3  1  0
  3  4  2  0
  4  5  1  0
  5  6  2  0
  6  7  1  0
  7  8  2  0
  8  9  1  0
  9 10  2  0
  4 11  1  0
 11 12  1  0
 12 13  1  1
 13 14  2  0
 13 15  1  0
 15 16  1  0
 16 17  2  0
 17 18  1  0
 17 19  1  0
 19 20  2  0
 20 21  1  0
 22 21  1  1
 22 23  1  0
 23 24  1  0
 24 25  1  0
 25 26  1  0
 26 27  1  0
 27 28  2  0
 28 29  1  0
 29 30  2  0
 30 31  1  0
 31 32  2  0
 25 33  1  0
 12 34  1  0
 10  2  1  0
 21 16  1  0
 33 22  1  0
 34  3  1  0
 10  5  1  0
 32 27  1  0
M  END
>  <name>  (134) 
P61200

>  <HIPPO Compound ID>  (134) 
99360

>  <energy_score>  (134) 
-33.075973

>  <HIPPO Pose ID>  (134) 
61200

>  <inspiration_score>  (134) 
None

>  <ref_pdb>  (134) 
7go7-a

>  <inchikey>  (134) 
VLLURCMKIIUZGH-PMACEKPBSA-N

>  <alias>  (134) 
None

>  <distance_score>  (134) 
1.300145

>  <ref_mols>  (134) 
7goy-a,7gp2-a

>  <smiles>  (134) 
Cn1c2c(c3ccccc31)C[C@H](C(=O)Nc1c(Cl)cnn1[C@H]1CCN(Cc3ccccc3)C1)C2

$$$$
MJABAWDJCLZGBU-UHFFFAOYSA-N-P44-P44-P59-607683
     RDKit          3D

 24 26  0  0  0  0  0  0  0  0999 V2000
   -2.6334    5.4432   24.1549 C   0  0  0  0  0  0  0  0  0  0  0  0
   -2.2276    4.3880   25.1412 C   0  0  0  0  0  0  0  0  0  0  0  0
   -3.0112    3.2500   25.3311 C   0  0  0  0  0  0  0  0  0  0  0  0
   -2.6290    2.2148   26.1876 C   0  0  0  0  0  0  0  0  0  0  0  0
   -1.4177    2.3597   26.8575 C   0  0  0  0  0  0  0  0  0  0  0  0
   -0.7679    1.5002   27.7064 N   0  0  0  0  0  0  0  0  0  0  0  0
    0.4114    2.0613   28.1080 C   0  0  0  0  0  0  0  0  0  0  0  0
    0.5054    3.3305   27.5800 C   0  0  0  0  0  0  0  0  0  0  0  0
    1.6177    4.3028   27.8141 C   0  0  0  0  0  0  0  0  0  0  0  0
    1.4825    5.0375   29.1433 C   0  0  0  0  0  0  0  0  0  0  0  0
    2.0251    4.1854   30.2868 C   0  0  0  0  0  0  0  0  0  0  0  0
    3.1699    4.0993   30.4971 O   0  0  0  0  0  0  0  0  0  0  0  0
    0.8179    3.5711   31.0379 N   0  0  0  0  0  0  0  0  0  0  0  0
    0.7753    2.6465   32.1465 C   0  0  0  0  0  0  0  0  0  0  0  0
    1.1983    1.2220   31.7928 C   0  0  0  0  0  0  0  0  0  0  0  0
    0.1392    0.3561   31.2951 N   0  0  0  0  0  0  0  0  0  0  0  0
    0.2724   -0.5769   30.3051 C   0  0  0  0  0  0  0  0  0  0  0  0
   -0.8150   -1.4034   30.4062 C   0  0  0  0  0  0  0  0  0  0  0  0
   -1.0962   -2.7993   29.5041 Cl  0  0  0  0  0  0  0  0  0  0  0  0
   -1.5692   -0.8951   31.4862 C   0  0  0  0  0  0  0  0  0  0  0  0
   -2.7901   -1.4554   32.1143 C   0  0  0  0  0  0  0  0  0  0  0  0
   -1.0019    0.2071   32.0040 N   0  0  0  0  0  0  0  0  0  0  0  0
   -0.6255    3.5024   26.7333 C   0  0  0  0  0  0  0  0  0  0  0  0
   -1.0368    4.5281   25.8607 C   0  0  0  0  0  0  0  0  0  0  0  0
  1  2  1  0
  2  3  2  0
  3  4  1  0
  4  5  2  0
  5  6  1  0
  6  7  1  0
  7  8  2  0
  8  9  1  0
  9 10  1  0
 10 11  1  0
 11 12  2  0
 11 13  1  0
 13 14  1  0
 14 15  1  0
 15 16  1  0
 16 17  1  0
 17 18  2  0
 18 19  1  0
 18 20  1  0
 20 21  1  0
 20 22  2  0
  8 23  1  0
 23 24  2  0
 24  2  1  0
 23  5  1  0
 22 16  1  0
M  END
>  <name>  (135) 
MJABAWDJCLZGBU-UHFFFAOYSA-N-P44-P44-P59-607683

>  <HIPPO Compound ID>  (135) 
98213

>  <energy_score>  (135) 
-6.885147

>  <HIPPO Pose ID>  (135) 
61210

>  <inspiration_score>  (135) 
None

>  <ref_pdb>  (135) 
7gp2-a

>  <inchikey>  (135) 
MJABAWDJCLZGBU-UHFFFAOYSA-N

>  <alias>  (135) 
MJABAWDJCLZGBU-UHFFFAOYSA-N-P44-P44-P59-607683

>  <distance_score>  (135) 
1.134074

>  <ref_mols>  (135) 
7goy-a,7gp2-a

>  <smiles>  (135) 
Cc1ccc2[nH]cc(CCC(=O)NCCn3cc(Cl)c(C)n3)c2c1

$$$$
OAJGZEMGPOHWQM-UHFFFAOYSA-N-P44-P44-P59-607683
     RDKit          3D

 24 26  0  0  0  0  0  0  0  0999 V2000
   -2.4244    5.5857   24.4510 C   0  0  0  0  0  0  0  0  0  0  0  0
   -2.0255    4.4352   25.3290 C   0  0  0  0  0  0  0  0  0  0  0  0
   -2.7908    3.2678   25.3639 C   0  0  0  0  0  0  0  0  0  0  0  0
   -2.3797    2.1341   26.0687 C   0  0  0  0  0  0  0  0  0  0  0  0
   -1.1441    2.1982   26.7088 C   0  0  0  0  0  0  0  0  0  0  0  0
   -0.4258    1.2163   27.3402 N   0  0  0  0  0  0  0  0  0  0  0  0
    0.7605    1.7349   27.7815 C   0  0  0  0  0  0  0  0  0  0  0  0
    0.7660    3.0965   27.5606 C   0  0  0  0  0  0  0  0  0  0  0  0
    1.8212    4.0524   28.0359 C   0  0  0  0  0  0  0  0  0  0  0  0
    1.6312    4.5008   29.4914 C   0  0  0  0  0  0  0  0  0  0  0  0
    1.9646    3.3761   30.4745 C   0  0  0  0  0  0  0  0  0  0  0  0
    3.0320    3.2170   30.9175 O   0  0  0  0  0  0  0  0  0  0  0  0
    0.6791    2.5262   30.6249 N   0  0  0  0  0  0  0  0  0  0  0  0
    0.4665    1.2509   31.2756 C   0  0  0  0  0  0  0  0  0  0  0  0
   -0.8220    0.5761   30.8067 C   0  0  0  0  0  0  0  0  0  0  0  0
   -0.6754   -0.8067   30.4357 N   0  0  0  0  0  0  0  0  0  0  0  0
   -0.1425   -1.0852   29.2293 N   0  0  0  0  0  0  0  0  0  0  0  0
   -0.0072   -2.4086   29.2560 C   0  0  0  0  0  0  0  0  0  0  0  0
   -0.5176   -2.9638   30.4406 C   0  0  0  0  0  0  0  0  0  0  0  0
   -0.3974   -4.5878   30.9031 Cl  0  0  0  0  0  0  0  0  0  0  0  0
   -1.0826   -1.9143   31.1309 C   0  0  0  0  0  0  0  0  0  0  0  0
   -1.8894   -1.8667   32.3746 C   0  0  0  0  0  0  0  0  0  0  0  0
   -0.3826    3.3695   26.7625 C   0  0  0  0  0  0  0  0  0  0  0  0
   -0.8399    4.5072   26.0715 C   0  0  0  0  0  0  0  0  0  0  0  0
  1  2  1  0
  2  3  2  0
  3  4  1  0
  4  5  2  0
  5  6  1  0
  6  7  1  0
  7  8  2  0
  8  9  1  0
  9 10  1  0
 10 11  1  0
 11 12  2  0
 11 13  1  0
 13 14  1  0
 14 15  1  0
 15 16  1  0
 16 17  1  0
 17 18  2  0
 18 19  1  0
 19 20  1  0
 19 21  2  0
 21 22  1  0
  8 23  1  0
 23 24  2  0
 24  2  1  0
 23  5  1  0
 21 16  1  0
M  END
>  <name>  (136) 
OAJGZEMGPOHWQM-UHFFFAOYSA-N-P44-P44-P59-607683

>  <HIPPO Compound ID>  (136) 
98214

>  <energy_score>  (136) 
-25.001518

>  <HIPPO Pose ID>  (136) 
61212

>  <inspiration_score>  (136) 
None

>  <ref_pdb>  (136) 
7gp2-a

>  <inchikey>  (136) 
OAJGZEMGPOHWQM-UHFFFAOYSA-N

>  <alias>  (136) 
OAJGZEMGPOHWQM-UHFFFAOYSA-N-P44-P44-P59-607683

>  <distance_score>  (136) 
1.535148

>  <ref_mols>  (136) 
7goy-a,7gp2-a

>  <smiles>  (136) 
Cc1ccc2[nH]cc(CCC(=O)NCCn3ncc(Cl)c3C)c2c1

$$$$
IZTRXEBPDPILLR-UHFFFAOYSA-N-P44-P44-P59-607683
     RDKit          3D

 24 26  0  0  0  0  0  0  0  0999 V2000
   -2.8722   -1.5374   32.1040 C   0  0  0  0  0  0  0  0  0  0  0  0
   -1.6298   -0.9518   31.5479 C   0  0  0  0  0  0  0  0  0  0  0  0
   -1.1202    0.1620   32.0995 N   0  0  0  0  0  0  0  0  0  0  0  0
    0.0692    0.3156   31.4789 N   0  0  0  0  0  0  0  0  0  0  0  0
    1.0469    1.2545   32.0071 C   0  0  0  0  0  0  0  0  0  0  0  0
    1.0494    2.5955   31.2849 C   0  0  0  0  0  0  0  0  0  0  0  0
    1.4338    2.4638   29.9048 N   0  0  0  0  0  0  0  0  0  0  0  0
    2.8052    2.1360   29.2715 C   0  0  0  0  0  0  0  0  0  0  0  0
    3.8529    1.9976   29.7666 O   0  0  0  0  0  0  0  0  0  0  0  0
    2.6261    1.8781   27.7660 C   0  0  0  0  0  0  0  0  0  0  0  0
    1.6798    2.7792   26.9797 C   0  0  0  0  0  0  0  0  0  0  0  0
    0.2329    2.3504   26.9355 C   0  0  0  0  0  0  0  0  0  0  0  0
   -0.3141    1.1906   27.4544 C   0  0  0  0  0  0  0  0  0  0  0  0
   -1.6627    1.2313   27.2862 N   0  0  0  0  0  0  0  0  0  0  0  0
   -1.9883    2.3167   26.5174 C   0  0  0  0  0  0  0  0  0  0  0  0
   -3.2208    2.6627   25.9787 C   0  0  0  0  0  0  0  0  0  0  0  0
   -3.2624    3.7354   25.0935 C   0  0  0  0  0  0  0  0  0  0  0  0
   -2.1398    4.5152   24.8593 C   0  0  0  0  0  0  0  0  0  0  0  0
   -0.9101    4.2218   25.4713 C   0  0  0  0  0  0  0  0  0  0  0  0
    0.2635    5.1140   25.1711 C   0  0  0  0  0  0  0  0  0  0  0  0
   -0.8310    3.0537   26.2780 C   0  0  0  0  0  0  0  0  0  0  0  0
    0.2809   -0.6032   30.4927 C   0  0  0  0  0  0  0  0  0  0  0  0
   -0.8045   -1.4391   30.5092 C   0  0  0  0  0  0  0  0  0  0  0  0
   -1.0257   -2.8181   29.5622 Cl  0  0  0  0  0  0  0  0  0  0  0  0
  1  2  1  0
  2  3  2  0
  3  4  1  0
  4  5  1  0
  5  6  1  0
  6  7  1  0
  7  8  1  0
  8  9  2  0
  8 10  1  0
 10 11  1  0
 11 12  1  0
 12 13  2  0
 13 14  1  0
 14 15  1  0
 15 16  2  0
 16 17  1  0
 17 18  2  0
 18 19  1  0
 19 20  1  0
 19 21  2  0
  4 22  1  0
 22 23  2  0
 23 24  1  0
 23  2  1  0
 21 12  1  0
 21 15  1  0
M  END
>  <name>  (137) 
IZTRXEBPDPILLR-UHFFFAOYSA-N-P44-P44-P59-607683

>  <HIPPO Compound ID>  (137) 
98224

>  <energy_score>  (137) 
-12.324078

>  <HIPPO Pose ID>  (137) 
61232

>  <inspiration_score>  (137) 
None

>  <ref_pdb>  (137) 
7gp2-a

>  <inchikey>  (137) 
IZTRXEBPDPILLR-UHFFFAOYSA-N

>  <alias>  (137) 
IZTRXEBPDPILLR-UHFFFAOYSA-N-P44-P44-P59-607683

>  <distance_score>  (137) 
1.708484

>  <ref_mols>  (137) 
7goy-a,7gp2-a

>  <smiles>  (137) 
Cc1nn(CCNC(=O)CCc2c[nH]c3cccc(C)c23)cc1Cl

$$$$
YOOVKSKBEDJQEK-UHFFFAOYSA-N-P59-P44-P59-607683
     RDKit          3D

 25 27  0  0  0  0  0  0  0  0999 V2000
   -3.2927    4.7254   23.0469 C   0  0  0  0  0  0  0  0  0  0  0  0
   -3.2595    3.7922   24.1172 O   0  0  0  0  0  0  0  0  0  0  0  0
   -2.2634    3.9179   25.0360 C   0  0  0  0  0  0  0  0  0  0  0  0
   -1.3996    5.0056   25.1272 C   0  0  0  0  0  0  0  0  0  0  0  0
   -0.4874    5.0936   26.1779 C   0  0  0  0  0  0  0  0  0  0  0  0
   -0.4521    4.0715   27.1431 C   0  0  0  0  0  0  0  0  0  0  0  0
    0.2204    3.9293   28.3950 C   0  0  0  0  0  0  0  0  0  0  0  0
    1.0797    4.9704   29.0597 C   0  0  0  0  0  0  0  0  0  0  0  0
    2.4084    4.4692   29.6167 C   0  0  0  0  0  0  0  0  0  0  0  0
    2.2498    3.9972   31.0591 C   0  0  0  0  0  0  0  0  0  0  0  0
    2.1935    4.7374   31.9582 O   0  0  0  0  0  0  0  0  0  0  0  0
    2.0988    2.4585   31.0169 N   0  0  0  0  0  0  0  0  0  0  0  0
    1.9415    1.5033   32.0863 C   0  0  0  0  0  0  0  0  0  0  0  0
    1.7547    0.0747   31.6046 C   0  0  0  0  0  0  0  0  0  0  0  0
    0.4493   -0.2389   31.0754 N   0  0  0  0  0  0  0  0  0  0  0  0
    0.1514   -0.5130   29.7776 C   0  0  0  0  0  0  0  0  0  0  0  0
   -1.1486   -0.9440   29.7778 C   0  0  0  0  0  0  0  0  0  0  0  0
   -2.0392   -1.3401   28.4085 Cl  0  0  0  0  0  0  0  0  0  0  0  0
   -1.5357   -0.9693   31.1372 C   0  0  0  0  0  0  0  0  0  0  0  0
   -2.7909   -1.4472   31.7591 C   0  0  0  0  0  0  0  0  0  0  0  0
   -0.5675   -0.4762   31.9219 N   0  0  0  0  0  0  0  0  0  0  0  0
   -0.2076    2.7285   28.9180 C   0  0  0  0  0  0  0  0  0  0  0  0
   -1.0671    2.1299   28.0403 N   0  0  0  0  0  0  0  0  0  0  0  0
   -1.2886    2.9650   26.9830 C   0  0  0  0  0  0  0  0  0  0  0  0
   -2.2058    2.8579   25.9441 C   0  0  0  0  0  0  0  0  0  0  0  0
  1  2  1  0
  2  3  1  0
  3  4  2  0
  4  5  1  0
  5  6  2  0
  6  7  1  0
  7  8  1  0
  8  9  1  0
  9 10  1  0
 10 11  2  0
 10 12  1  0
 12 13  1  0
 13 14  1  0
 14 15  1  0
 15 16  1  0
 16 17  2  0
 17 18  1  0
 17 19  1  0
 19 20  1  0
 19 21  2  0
  7 22  2  0
 22 23  1  0
 23 24  1  0
 24 25  2  0
 25  3  1  0
 24  6  1  0
 21 15  1  0
M  END
>  <name>  (138) 
YOOVKSKBEDJQEK-UHFFFAOYSA-N-P59-P44-P59-607683

>  <HIPPO Compound ID>  (138) 
98230

>  <energy_score>  (138) 
-0.433088

>  <HIPPO Pose ID>  (138) 
61245

>  <inspiration_score>  (138) 
None

>  <ref_pdb>  (138) 
7gp2-a

>  <inchikey>  (138) 
YOOVKSKBEDJQEK-UHFFFAOYSA-N

>  <alias>  (138) 
YOOVKSKBEDJQEK-UHFFFAOYSA-N-P59-P44-P59-607683

>  <distance_score>  (138) 
1.259669

>  <ref_mols>  (138) 
7goy-a,7gp2-a

>  <smiles>  (138) 
COc1ccc2c(CCC(=O)NCCn3cc(Cl)c(C)n3)c[nH]c2c1

$$$$
ILWDJYHLWUAZFF-UHFFFAOYSA-N-P44-P44-P59-607683
     RDKit          3D

 25 28  0  0  0  0  0  0  0  0999 V2000
   -8.9809   -1.2994   36.1360 C   0  0  0  0  0  0  0  0  0  0  0  0
   -7.5103   -1.1576   36.2635 C   0  0  0  0  0  0  0  0  0  0  0  0
   -6.7205   -1.3180   35.1901 N   0  0  0  0  0  0  0  0  0  0  0  0
   -5.4780   -1.0946   35.6571 N   0  0  0  0  0  0  0  0  0  0  0  0
   -4.3290   -1.0215   34.7763 C   0  0  0  0  0  0  0  0  0  0  0  0
   -4.5269   -1.4975   33.3438 C   0  0  0  0  0  0  0  0  0  0  0  0
   -3.4586   -1.0385   32.4717 N   0  0  0  0  0  0  0  0  0  0  0  0
   -2.5925   -1.8204   31.4291 C   0  0  0  0  0  0  0  0  0  0  0  0
   -2.5597   -2.9621   31.1759 O   0  0  0  0  0  0  0  0  0  0  0  0
   -1.8109   -0.7186   30.6758 C   0  0  2  0  0  0  0  0  0  0  0  0
   -1.5538   -0.9642   29.1676 C   0  0  0  0  0  0  0  0  0  0  0  0
   -0.9336    0.3166   28.6932 C   0  0  0  0  0  0  0  0  0  0  0  0
   -0.0173    0.9104   29.5338 C   0  0  0  0  0  0  0  0  0  0  0  0
    0.3747    2.0916   28.9794 N   0  0  0  0  0  0  0  0  0  0  0  0
   -0.4644    2.3999   27.9321 C   0  0  0  0  0  0  0  0  0  0  0  0
   -0.6021    3.6012   27.2251 C   0  0  0  0  0  0  0  0  0  0  0  0
   -1.5945    3.6704   26.2463 C   0  0  0  0  0  0  0  0  0  0  0  0
   -2.3965    2.5716   25.9681 C   0  0  0  0  0  0  0  0  0  0  0  0
   -2.2277    1.3674   26.6703 C   0  0  0  0  0  0  0  0  0  0  0  0
   -1.2646    1.2763   27.6925 C   0  0  0  0  0  0  0  0  0  0  0  0
    0.2672    0.3969   30.8434 C   0  0  0  0  0  0  0  0  0  0  0  0
   -0.5594   -0.4006   31.4482 N   0  0  0  0  0  0  0  0  0  0  0  0
   -5.4479   -0.8398   37.0007 C   0  0  0  0  0  0  0  0  0  0  0  0
   -6.7536   -0.8625   37.4207 C   0  0  0  0  0  0  0  0  0  0  0  0
   -7.3354   -0.5980   38.9874 Cl  0  0  0  0  0  0  0  0  0  0  0  0
  1  2  1  0
  2  3  2  0
  3  4  1  0
  4  5  1  0
  5  6  1  0
  6  7  1  0
  7  8  1  0
  8  9  2  0
 10  8  1  1
 10 11  1  0
 11 12  1  0
 12 13  2  0
 13 14  1  0
 14 15  1  0
 15 16  2  0
 16 17  1  0
 17 18  2  0
 18 19  1  0
 19 20  2  0
 13 21  1  0
 21 22  2  0
  4 23  1  0
 23 24  2  0
 24 25  1  0
 24  2  1  0
 22 10  1  0
 20 12  1  0
 20 15  1  0
M  END
>  <name>  (139) 
ILWDJYHLWUAZFF-UHFFFAOYSA-N-P44-P44-P59-607683

>  <HIPPO Compound ID>  (139) 
98237

>  <energy_score>  (139) 
-8.340206

>  <HIPPO Pose ID>  (139) 
61258

>  <inspiration_score>  (139) 
None

>  <ref_pdb>  (139) 
7gp2-a

>  <inchikey>  (139) 
ILWDJYHLWUAZFF-UHFFFAOYSA-N

>  <alias>  (139) 
ILWDJYHLWUAZFF-UHFFFAOYSA-N-P44-P44-P59-607683

>  <distance_score>  (139) 
1.094696

>  <ref_mols>  (139) 
7goy-a,7gp2-a

>  <smiles>  (139) 
Cc1nn(CCNC(=O)C2Cc3c([nH]c4ccccc34)C=N2)cc1Cl

$$$$
ODUHVFZTTFXACA-UHFFFAOYSA-N-P44-P44-P59-607683
     RDKit          3D

 25 27  0  0  0  0  0  0  0  0999 V2000
    4.2166    3.3820   26.3139 C   0  0  0  0  0  0  0  0  0  0  0  0
    2.9137    2.6392   26.5788 C   0  0  0  0  0  0  0  0  0  0  0  0
    1.7368    3.5693   26.9422 C   0  0  2  0  0  0  0  0  0  0  0  0
    1.9549    4.4144   28.2083 C   0  0  0  0  0  0  0  0  0  0  0  0
    2.3418    3.6054   29.4462 C   0  0  0  0  0  0  0  0  0  0  0  0
    3.4480    3.3061   29.6648 O   0  0  0  0  0  0  0  0  0  0  0  0
    1.0505    3.3317   30.2546 N   0  0  0  0  0  0  0  0  0  0  0  0
    0.8670    2.7161   31.5448 C   0  0  0  0  0  0  0  0  0  0  0  0
    1.2360    1.2375   31.5834 C   0  0  0  0  0  0  0  0  0  0  0  0
    0.1874    0.3339   31.1372 N   0  0  0  0  0  0  0  0  0  0  0  0
    0.3313   -0.6615   30.2144 C   0  0  0  0  0  0  0  0  0  0  0  0
   -0.7553   -1.4817   30.3608 C   0  0  0  0  0  0  0  0  0  0  0  0
   -1.0234   -2.9370   29.5530 Cl  0  0  0  0  0  0  0  0  0  0  0  0
   -1.5198   -0.9050   31.3991 C   0  0  0  0  0  0  0  0  0  0  0  0
   -2.7391   -1.4331   32.0578 C   0  0  0  0  0  0  0  0  0  0  0  0
   -0.9634    0.2352   31.8419 N   0  0  0  0  0  0  0  0  0  0  0  0
    0.4122    2.8360   26.9870 C   0  0  0  0  0  0  0  0  0  0  0  0
    0.1484    1.6339   27.6120 C   0  0  0  0  0  0  0  0  0  0  0  0
   -1.1786    1.3538   27.4894 N   0  0  0  0  0  0  0  0  0  0  0  0
   -1.7672    2.3082   26.7009 C   0  0  0  0  0  0  0  0  0  0  0  0
   -3.0729    2.3970   26.2332 C   0  0  0  0  0  0  0  0  0  0  0  0
   -3.3762    3.4197   25.3331 C   0  0  0  0  0  0  0  0  0  0  0  0
   -2.4344    4.3734   24.9761 C   0  0  0  0  0  0  0  0  0  0  0  0
   -1.1496    4.3143   25.5083 C   0  0  0  0  0  0  0  0  0  0  0  0
   -0.7977    3.2446   26.3564 C   0  0  0  0  0  0  0  0  0  0  0  0
  1  2  1  0
  3  2  1  1
  3  4  1  0
  4  5  1  0
  5  6  2  0
  5  7  1  0
  7  8  1  0
  8  9  1  0
  9 10  1  0
 10 11  1  0
 11 12  2  0
 12 13  1  0
 12 14  1  0
 14 15  1  0
 14 16  2  0
  3 17  1  0
 17 18  2  0
 18 19  1  0
 19 20  1  0
 20 21  2  0
 21 22  1  0
 22 23  2  0
 23 24  1  0
 24 25  2  0
 16 10  1  0
 25 17  1  0
 25 20  1  0
M  END
>  <name>  (140) 
ODUHVFZTTFXACA-UHFFFAOYSA-N-P44-P44-P59-607683

>  <HIPPO Compound ID>  (140) 
98243

>  <energy_score>  (140) 
-15.79643

>  <HIPPO Pose ID>  (140) 
61270

>  <inspiration_score>  (140) 
None

>  <ref_pdb>  (140) 
7gp2-a

>  <inchikey>  (140) 
ODUHVFZTTFXACA-UHFFFAOYSA-N

>  <alias>  (140) 
ODUHVFZTTFXACA-UHFFFAOYSA-N-P44-P44-P59-607683

>  <distance_score>  (140) 
1.783997

>  <ref_mols>  (140) 
7goy-a,7gp2-a

>  <smiles>  (140) 
CCC(CC(=O)NCCn1cc(Cl)c(C)n1)c1c[nH]c2ccccc12

$$$$
NBSYWYDTENSXBT-UHFFFAOYSA-N-P44-P44-P59-607683
     RDKit          3D

 26 28  0  0  0  0  0  0  0  0999 V2000
   -2.4145   -1.7952   32.8975 C   0  0  0  0  0  0  0  0  0  0  0  0
   -1.5048   -1.5137   31.7651 C   0  0  0  0  0  0  0  0  0  0  0  0
   -1.3374   -0.2578   31.3324 N   0  0  0  0  0  0  0  0  0  0  0  0
   -0.5973   -0.4072   30.2142 N   0  0  0  0  0  0  0  0  0  0  0  0
   -0.5930    0.6598   29.2316 C   0  0  0  0  0  0  0  0  0  0  0  0
   -1.9804    0.7143   28.6314 C   0  0  0  0  0  0  0  0  0  0  0  0
   -2.2887    1.8633   27.8357 N   0  0  0  0  0  0  0  0  0  0  0  0
   -3.0471    1.9808   26.5081 C   0  0  0  0  0  0  0  0  0  0  0  0
   -3.6070    1.1765   25.8893 O   0  0  0  0  0  0  0  0  0  0  0  0
   -2.8988    3.3885   25.9573 C   0  0  0  0  0  0  0  0  0  0  0  0
   -1.5638    3.4377   25.1986 C   0  0  2  0  0  0  0  0  0  0  0  0
   -0.4548    3.5560   26.2121 C   0  0  0  0  0  0  0  0  0  0  0  0
    0.3898    2.5271   26.5823 C   0  0  0  0  0  0  0  0  0  0  0  0
    1.1480    2.9281   27.6386 N   0  0  0  0  0  0  0  0  0  0  0  0
    0.7363    4.1628   28.0544 C   0  0  0  0  0  0  0  0  0  0  0  0
    1.1564    4.9148   29.1507 C   0  0  0  0  0  0  0  0  0  0  0  0
    0.5896    6.1751   29.3405 C   0  0  0  0  0  0  0  0  0  0  0  0
   -0.3888    6.6464   28.4763 C   0  0  0  0  0  0  0  0  0  0  0  0
   -0.8214    5.8633   27.4006 C   0  0  0  0  0  0  0  0  0  0  0  0
   -0.2355    4.6066   27.1581 C   0  0  0  0  0  0  0  0  0  0  0  0
   -1.4661    4.3682   23.9623 C   0  0  0  0  0  0  0  0  0  0  0  0
   -2.4153    3.8854   22.8595 C   0  0  0  0  0  0  0  0  0  0  0  0
   -1.7220    5.8539   24.1837 C   0  0  0  0  0  0  0  0  0  0  0  0
   -0.1665   -1.6801   30.0045 C   0  0  0  0  0  0  0  0  0  0  0  0
   -0.7434   -2.4265   30.9996 C   0  0  0  0  0  0  0  0  0  0  0  0
   -0.5968   -4.0931   31.2555 Cl  0  0  0  0  0  0  0  0  0  0  0  0
  1  2  1  0
  2  3  2  0
  3  4  1  0
  4  5  1  0
  5  6  1  0
  6  7  1  0
  7  8  1  0
  8  9  2  0
  8 10  1  0
 11 10  1  1
 11 12  1  0
 12 13  2  0
 13 14  1  0
 14 15  1  0
 15 16  2  0
 16 17  1  0
 17 18  2  0
 18 19  1  0
 19 20  2  0
 11 21  1  0
 21 22  1  0
 21 23  1  0
  4 24  1  0
 24 25  2  0
 25 26  1  0
 25  2  1  0
 20 12  1  0
 20 15  1  0
M  END
>  <name>  (141) 
NBSYWYDTENSXBT-UHFFFAOYSA-N-P44-P44-P59-607683

>  <HIPPO Compound ID>  (141) 
98266

>  <energy_score>  (141) 
-1.112957

>  <HIPPO Pose ID>  (141) 
61316

>  <inspiration_score>  (141) 
None

>  <ref_pdb>  (141) 
7gp2-a

>  <inchikey>  (141) 
NBSYWYDTENSXBT-UHFFFAOYSA-N

>  <alias>  (141) 
NBSYWYDTENSXBT-UHFFFAOYSA-N-P44-P44-P59-607683

>  <distance_score>  (141) 
1.973669

>  <ref_mols>  (141) 
7goy-a,7gp2-a

>  <smiles>  (141) 
Cc1nn(CCNC(=O)CC(c2c[nH]c3ccccc23)C(C)C)cc1Cl

$$$$
BSVNQXWQRHYPAD-UHFFFAOYSA-N-P44-P44-P59-607683
     RDKit          3D

 26 28  0  0  0  0  0  0  0  0999 V2000
    5.1165   -5.2311   28.0743 C   0  0  0  0  0  0  0  0  0  0  0  0
    4.8840   -4.2837   26.8908 C   0  0  1  0  0  0  0  0  0  0  0  0
    4.3543   -2.9166   27.3563 C   0  0  0  0  0  0  0  0  0  0  0  0
    2.8698   -2.9476   27.7064 C   0  0  0  0  0  0  0  0  0  0  0  0
    2.2094   -3.9121   27.6926 O   0  0  0  0  0  0  0  0  0  0  0  0
    2.4950   -1.4719   28.0413 N   0  0  0  0  0  0  0  0  0  0  0  0
    1.2983   -0.9135   28.3139 N   0  0  0  0  0  0  0  0  0  0  0  0
    0.8990    0.1512   29.3764 C   0  0  0  0  0  0  0  0  0  0  0  0
    1.5319    0.6484   30.2271 O   0  0  0  0  0  0  0  0  0  0  0  0
   -0.5899    0.4849   29.2327 C   0  0  2  0  0  0  0  0  0  0  0  0
   -1.4999   -0.7396   29.1659 C   0  0  0  0  0  0  0  0  0  0  0  0
   -0.8157    1.5291   28.2394 N   0  0  0  0  0  0  0  0  0  0  0  0
   -0.2670    2.7853   28.2625 C   0  0  0  0  0  0  0  0  0  0  0  0
   -0.9035    3.5012   27.2800 C   0  0  0  0  0  0  0  0  0  0  0  0
   -0.6588    5.1137   26.8413 Cl  0  0  0  0  0  0  0  0  0  0  0  0
   -1.8143    2.5997   26.7072 C   0  0  0  0  0  0  0  0  0  0  0  0
   -1.7388    1.3836   27.2636 N   0  0  0  0  0  0  0  0  0  0  0  0
    6.1307   -4.0966   26.0577 C   0  0  0  0  0  0  0  0  0  0  0  0
    7.4259   -3.9233   26.5096 C   0  0  0  0  0  0  0  0  0  0  0  0
    8.2472   -3.7727   25.4249 N   0  0  0  0  0  0  0  0  0  0  0  0
    7.5145   -3.8165   24.2630 C   0  0  0  0  0  0  0  0  0  0  0  0
    7.9287   -3.6901   22.9315 C   0  0  0  0  0  0  0  0  0  0  0  0
    6.9499   -3.7735   21.9373 C   0  0  0  0  0  0  0  0  0  0  0  0
    5.6120   -3.9770   22.2642 C   0  0  0  0  0  0  0  0  0  0  0  0
    5.2160   -4.1036   23.6007 C   0  0  0  0  0  0  0  0  0  0  0  0
    6.1833   -4.0227   24.6248 C   0  0  0  0  0  0  0  0  0  0  0  0
  2  1  1  1
  2  3  1  0
  3  4  1  0
  4  5  2  0
  4  6  1  0
  6  7  1  0
  7  8  1  0
  8  9  2  0
  8 10  1  0
 10 11  1  6
 10 12  1  0
 12 13  1  0
 13 14  2  0
 14 15  1  0
 14 16  1  0
 16 17  2  0
  2 18  1  0
 18 19  2  0
 19 20  1  0
 20 21  1  0
 21 22  2  0
 22 23  1  0
 23 24  2  0
 24 25  1  0
 25 26  2  0
 17 12  1  0
 26 18  1  0
 26 21  1  0
M  END
>  <name>  (142) 
BSVNQXWQRHYPAD-UHFFFAOYSA-N-P44-P44-P59-607683

>  <HIPPO Compound ID>  (142) 
98269

>  <energy_score>  (142) 
-2.661495

>  <HIPPO Pose ID>  (142) 
61322

>  <inspiration_score>  (142) 
None

>  <ref_pdb>  (142) 
7gp2-a

>  <inchikey>  (142) 
BSVNQXWQRHYPAD-UHFFFAOYSA-N

>  <alias>  (142) 
BSVNQXWQRHYPAD-UHFFFAOYSA-N-P44-P44-P59-607683

>  <distance_score>  (142) 
1.144563

>  <ref_mols>  (142) 
7goy-a,7gp2-a

>  <smiles>  (142) 
CC(CC(=O)NNC(=O)C(C)n1cc(Cl)cn1)c1c[nH]c2ccccc12

$$$$
HLSNBHSQIQYOHG-UHFFFAOYSA-N-P44-P44-P59-607683
     RDKit          3D

 26 28  0  0  0  0  0  0  0  0999 V2000
   -3.0044    5.1629   24.0365 C   0  0  0  0  0  0  0  0  0  0  0  0
   -2.4104    4.2393   25.0588 C   0  0  0  0  0  0  0  0  0  0  0  0
   -3.0829    3.0843   25.4598 C   0  0  0  0  0  0  0  0  0  0  0  0
   -2.5045    2.1396   26.3097 C   0  0  0  0  0  0  0  0  0  0  0  0
   -1.2189    2.4084   26.7695 C   0  0  0  0  0  0  0  0  0  0  0  0
   -0.3808    1.6488   27.5453 N   0  0  0  0  0  0  0  0  0  0  0  0
    0.7967    2.3198   27.7360 C   0  0  0  0  0  0  0  0  0  0  0  0
    0.7007    3.5704   27.1499 C   0  0  0  0  0  0  0  0  0  0  0  0
    1.7229    4.6787   27.1961 C   0  0  0  0  0  0  0  0  0  0  0  0
    1.5633    5.6328   28.3950 C   0  0  0  0  0  0  0  0  0  0  0  0
    2.0379    4.9137   29.6479 C   0  0  0  0  0  0  0  0  0  0  0  0
    3.1345    4.9717   30.0462 O   0  0  0  0  0  0  0  0  0  0  0  0
    0.8290    4.0744   30.1461 N   0  0  0  0  0  0  0  0  0  0  0  0
    0.7556    3.1399   31.0990 N   0  0  0  0  0  0  0  0  0  0  0  0
    1.6715    1.9113   31.3830 C   0  0  0  0  0  0  0  0  0  0  0  0
    2.6705    1.5770   30.8742 O   0  0  0  0  0  0  0  0  0  0  0  0
    0.9880    1.0734   32.4312 C   0  0  0  0  0  0  0  0  0  0  0  0
    0.0016    0.2184   31.7832 N   0  0  0  0  0  0  0  0  0  0  0  0
    0.1467   -0.5118   30.6372 C   0  0  0  0  0  0  0  0  0  0  0  0
   -0.9594   -1.3169   30.5584 C   0  0  0  0  0  0  0  0  0  0  0  0
   -1.2432   -2.5179   29.4114 Cl  0  0  0  0  0  0  0  0  0  0  0  0
   -1.7448   -0.9764   31.6824 C   0  0  0  0  0  0  0  0  0  0  0  0
   -2.9944   -1.5976   32.1781 C   0  0  0  0  0  0  0  0  0  0  0  0
   -1.1931    0.0308   32.3788 N   0  0  0  0  0  0  0  0  0  0  0  0
   -0.5434    3.5907   26.4588 C   0  0  0  0  0  0  0  0  0  0  0  0
   -1.1480    4.5163   25.5892 C   0  0  0  0  0  0  0  0  0  0  0  0
  1  2  1  0
  2  3  2  0
  3  4  1  0
  4  5  2  0
  5  6  1  0
  6  7  1  0
  7  8  2  0
  8  9  1  0
  9 10  1  0
 10 11  1  0
 11 12  2  0
 11 13  1  0
 13 14  1  0
 14 15  1  0
 15 16  2  0
 15 17  1  0
 17 18  1  0
 18 19  1  0
 19 20  2  0
 20 21  1  0
 20 22  1  0
 22 23  1  0
 22 24  2  0
  8 25  1  0
 25 26  2  0
 26  2  1  0
 25  5  1  0
 24 18  1  0
M  END
>  <name>  (143) 
HLSNBHSQIQYOHG-UHFFFAOYSA-N-P44-P44-P59-607683

>  <HIPPO Compound ID>  (143) 
98277

>  <energy_score>  (143) 
-1.561454

>  <HIPPO Pose ID>  (143) 
61338

>  <inspiration_score>  (143) 
None

>  <ref_pdb>  (143) 
7gp2-a

>  <inchikey>  (143) 
HLSNBHSQIQYOHG-UHFFFAOYSA-N

>  <alias>  (143) 
HLSNBHSQIQYOHG-UHFFFAOYSA-N-P44-P44-P59-607683

>  <distance_score>  (143) 
1.554845

>  <ref_mols>  (143) 
7goy-a,7gp2-a

>  <smiles>  (143) 
Cc1ccc2[nH]cc(CCC(=O)NNC(=O)Cn3cc(Cl)c(C)n3)c2c1

$$$$
YOAXZQQTVRCEBP-UHFFFAOYSA-N-P59-P44-P59-607683
     RDKit          3D

 26 29  0  0  0  0  0  0  0  0999 V2000
   -4.5785    0.6040   33.5844 O   0  0  0  0  0  0  0  0  0  0  0  0
   -4.2992   -0.4733   33.9486 C   0  0  0  0  0  0  0  0  0  0  0  0
   -4.9828   -1.1670   35.1265 C   0  0  0  0  0  0  0  0  0  0  0  0
   -6.3158   -0.6585   35.4355 N   0  0  0  0  0  0  0  0  0  0  0  0
   -6.6748    0.6315   35.7140 C   0  0  0  0  0  0  0  0  0  0  0  0
   -8.0177    0.6021   35.9927 C   0  0  0  0  0  0  0  0  0  0  0  0
   -9.0485    1.8930   36.3479 Cl  0  0  0  0  0  0  0  0  0  0  0  0
   -8.3680   -0.7555   35.9359 C   0  0  0  0  0  0  0  0  0  0  0  0
   -7.3221   -1.5411   35.6551 N   0  0  0  0  0  0  0  0  0  0  0  0
   -3.1643   -1.4393   33.4756 N   0  0  0  0  0  0  0  0  0  0  0  0
   -2.2741   -1.3172   32.4696 N   0  0  0  0  0  0  0  0  0  0  0  0
   -1.8424   -2.3329   31.3765 C   0  0  0  0  0  0  0  0  0  0  0  0
   -2.1348   -3.4538   31.2277 O   0  0  0  0  0  0  0  0  0  0  0  0
   -0.9370   -1.5407   30.3901 C   0  0  1  0  0  0  0  0  0  0  0  0
   -1.8067   -0.7874   29.3501 C   0  0  0  0  0  0  0  0  0  0  0  0
   -1.1136    0.4230   28.8246 C   0  0  0  0  0  0  0  0  0  0  0  0
   -0.0404    0.9376   29.5097 C   0  0  0  0  0  0  0  0  0  0  0  0
    0.3382    2.1035   28.9125 N   0  0  0  0  0  0  0  0  0  0  0  0
   -0.5423    2.4233   27.9095 C   0  0  0  0  0  0  0  0  0  0  0  0
   -0.6291    3.5886   27.1374 C   0  0  0  0  0  0  0  0  0  0  0  0
   -1.6597    3.6734   26.2010 C   0  0  0  0  0  0  0  0  0  0  0  0
   -2.5521    2.6241   26.0314 C   0  0  0  0  0  0  0  0  0  0  0  0
   -2.4398    1.4598   26.8074 C   0  0  0  0  0  0  0  0  0  0  0  0
   -1.4366    1.3552   27.7889 C   0  0  0  0  0  0  0  0  0  0  0  0
    0.4430    0.3973   30.7342 C   0  0  0  0  0  0  0  0  0  0  0  0
   -0.0290   -0.6910   31.2359 N   0  0  0  0  0  0  0  0  0  0  0  0
  1  2  2  0
  2  3  1  0
  3  4  1  0
  4  5  1  0
  5  6  2  0
  6  7  1  0
  6  8  1  0
  8  9  2  0
  2 10  1  0
 10 11  1  0
 11 12  1  0
 12 13  2  0
 14 12  1  1
 14 15  1  0
 15 16  1  0
 16 17  2  0
 17 18  1  0
 18 19  1  0
 19 20  2  0
 20 21  1  0
 21 22  2  0
 22 23  1  0
 23 24  2  0
 17 25  1  0
 25 26  2  0
  9  4  1  0
 26 14  1  0
 24 16  1  0
 24 19  1  0
M  END
>  <name>  (144) 
YOAXZQQTVRCEBP-UHFFFAOYSA-N-P59-P44-P59-607683

>  <HIPPO Compound ID>  (144) 
98284

>  <energy_score>  (144) 
-6.681877

>  <HIPPO Pose ID>  (144) 
61353

>  <inspiration_score>  (144) 
None

>  <ref_pdb>  (144) 
7gp2-a

>  <inchikey>  (144) 
YOAXZQQTVRCEBP-UHFFFAOYSA-N

>  <alias>  (144) 
YOAXZQQTVRCEBP-UHFFFAOYSA-N-P59-P44-P59-607683

>  <distance_score>  (144) 
1.154266

>  <ref_mols>  (144) 
7goy-a,7gp2-a

>  <smiles>  (144) 
O=C(Cn1cc(Cl)cn1)NNC(=O)C1Cc2c([nH]c3ccccc23)C=N1

$$$$
CYFRPBSTOBXQKE-UHFFFAOYSA-N-P59-P44-P59-607683
     RDKit          3D

 26 28  0  0  0  0  0  0  0  0999 V2000
   -1.5943   -0.8481   28.9786 C   0  0  0  0  0  0  0  0  0  0  0  0
   -0.6989    0.3745   29.1588 C   0  0  1  0  0  0  0  0  0  0  0  0
    0.7749    0.0185   29.3753 C   0  0  0  0  0  0  0  0  0  0  0  0
    1.3308    0.3827   30.3398 O   0  0  0  0  0  0  0  0  0  0  0  0
    1.2673   -0.8880   28.2091 N   0  0  0  0  0  0  0  0  0  0  0  0
    2.4826   -1.4133   27.9636 N   0  0  0  0  0  0  0  0  0  0  0  0
    2.9196   -2.8944   27.7455 C   0  0  0  0  0  0  0  0  0  0  0  0
    2.2790   -3.8697   27.6697 O   0  0  0  0  0  0  0  0  0  0  0  0
    4.4332   -2.8497   27.5911 C   0  0  0  0  0  0  0  0  0  0  0  0
    5.0134   -4.2430   27.3649 C   0  0  0  0  0  0  0  0  0  0  0  0
    6.4927   -4.1954   27.1530 C   0  0  0  0  0  0  0  0  0  0  0  0
    7.4638   -4.3635   28.1206 C   0  0  0  0  0  0  0  0  0  0  0  0
    8.6906   -4.2399   27.5261 N   0  0  0  0  0  0  0  0  0  0  0  0
    9.9558   -4.3604   28.2156 C   0  0  0  0  0  0  0  0  0  0  0  0
    8.5469   -3.9857   26.1792 C   0  0  0  0  0  0  0  0  0  0  0  0
    9.5040   -3.7809   25.1722 C   0  0  0  0  0  0  0  0  0  0  0  0
    9.0499   -3.5446   23.8716 C   0  0  0  0  0  0  0  0  0  0  0  0
    7.6892   -3.5148   23.5834 C   0  0  0  0  0  0  0  0  0  0  0  0
    6.7438   -3.7198   24.5939 C   0  0  0  0  0  0  0  0  0  0  0  0
    7.1745   -3.9586   25.9163 C   0  0  0  0  0  0  0  0  0  0  0  0
   -0.8633    1.4615   28.1995 N   0  0  0  0  0  0  0  0  0  0  0  0
   -0.2663    2.6937   28.2754 C   0  0  0  0  0  0  0  0  0  0  0  0
   -0.8692    3.4725   27.3192 C   0  0  0  0  0  0  0  0  0  0  0  0
   -0.5646    5.0923   26.9498 Cl  0  0  0  0  0  0  0  0  0  0  0  0
   -1.8091    2.6302   26.7051 C   0  0  0  0  0  0  0  0  0  0  0  0
   -1.7851    1.3917   27.2139 N   0  0  0  0  0  0  0  0  0  0  0  0
  2  1  1  6
  2  3  1  0
  3  4  2  0
  3  5  1  0
  5  6  1  0
  6  7  1  0
  7  8  2  0
  7  9  1  0
  9 10  1  0
 10 11  1  0
 11 12  2  0
 12 13  1  0
 13 14  1  0
 13 15  1  0
 15 16  2  0
 16 17  1  0
 17 18  2  0
 18 19  1  0
 19 20  2  0
  2 21  1  0
 21 22  1  0
 22 23  2  0
 23 24  1  0
 23 25  1  0
 25 26  2  0
 20 11  1  0
 26 21  1  0
 20 15  1  0
M  END
>  <name>  (145) 
CYFRPBSTOBXQKE-UHFFFAOYSA-N-P59-P44-P59-607683

>  <HIPPO Compound ID>  (145) 
98293

>  <energy_score>  (145) 
-12.953528

>  <HIPPO Pose ID>  (145) 
61371

>  <inspiration_score>  (145) 
None

>  <ref_pdb>  (145) 
7gp2-a

>  <inchikey>  (145) 
CYFRPBSTOBXQKE-UHFFFAOYSA-N

>  <alias>  (145) 
CYFRPBSTOBXQKE-UHFFFAOYSA-N-P59-P44-P59-607683

>  <distance_score>  (145) 
1.050235

>  <ref_mols>  (145) 
7goy-a,7gp2-a

>  <smiles>  (145) 
CC(C(=O)NNC(=O)CCc1cn(C)c2ccccc12)n1cc(Cl)cn1

$$$$
BMCKSBZOTFNPIL-UHFFFAOYSA-N-P59-P44-P59-607683
     RDKit          3D

 27 29  0  0  0  0  0  0  0  0999 V2000
   -1.8314   -1.3496   32.5707 C   0  0  0  0  0  0  0  0  0  0  0  0
   -1.1301   -1.5884   31.2889 C   0  0  0  0  0  0  0  0  0  0  0  0
   -0.7470   -2.7553   30.6668 C   0  0  0  0  0  0  0  0  0  0  0  0
   -0.7475   -4.3206   31.3088 Cl  0  0  0  0  0  0  0  0  0  0  0  0
   -0.3079   -2.3731   29.3895 C   0  0  0  0  0  0  0  0  0  0  0  0
   -0.2810   -1.0484   29.2550 N   0  0  0  0  0  0  0  0  0  0  0  0
   -0.6109   -0.6081   30.4839 N   0  0  0  0  0  0  0  0  0  0  0  0
   -0.3841    0.7820   30.7943 C   0  0  0  0  0  0  0  0  0  0  0  0
    1.0834    1.1634   30.9746 C   0  0  0  0  0  0  0  0  0  0  0  0
    1.4683    2.2381   30.0892 N   0  0  0  0  0  0  0  0  0  0  0  0
    2.8679    2.7653   29.7001 C   0  0  0  0  0  0  0  0  0  0  0  0
    3.9240    2.4653   30.0921 O   0  0  0  0  0  0  0  0  0  0  0  0
    2.6570    3.7588   28.5552 C   0  0  0  0  0  0  0  0  0  0  0  0
    2.5006    2.9999   27.2102 C   0  0  1  0  0  0  0  0  0  0  0  0
    1.0246    2.6638   26.9821 C   0  0  0  0  0  0  0  0  0  0  0  0
    0.4621    1.4383   27.2901 C   0  0  0  0  0  0  0  0  0  0  0  0
   -0.8829    1.5029   27.0984 N   0  0  0  0  0  0  0  0  0  0  0  0
   -1.1930    2.7086   26.5210 C   0  0  0  0  0  0  0  0  0  0  0  0
   -2.4001    3.1833   26.0205 C   0  0  0  0  0  0  0  0  0  0  0  0
   -3.9743    2.1949   26.2155 Br  0  0  0  0  0  0  0  0  0  0  0  0
   -2.4195    4.3941   25.3324 C   0  0  0  0  0  0  0  0  0  0  0  0
   -1.2889    5.1912   25.2778 C   0  0  0  0  0  0  0  0  0  0  0  0
   -0.1039    4.7519   25.8637 C   0  0  0  0  0  0  0  0  0  0  0  0
   -0.0269    3.4658   26.4404 C   0  0  0  0  0  0  0  0  0  0  0  0
    3.2128    3.7263   26.0277 C   0  0  0  0  0  0  0  0  0  0  0  0
    2.9896    3.0245   24.6811 C   0  0  0  0  0  0  0  0  0  0  0  0
    4.7337    3.8174   26.2457 C   0  0  0  0  0  0  0  0  0  0  0  0
  1  2  1  0
  2  3  2  0
  3  4  1  0
  3  5  1  0
  5  6  2  0
  6  7  1  0
  7  8  1  0
  8  9  1  0
  9 10  1  0
 10 11  1  0
 11 12  2  0
 11 13  1  0
 14 13  1  1
 14 15  1  0
 15 16  2  0
 16 17  1  0
 17 18  1  0
 18 19  2  0
 19 20  1  0
 19 21  1  0
 21 22  2  0
 22 23  1  0
 23 24  2  0
 14 25  1  0
 25 26  1  0
 25 27  1  0
  7  2  1  0
 24 15  1  0
 24 18  1  0
M  END
>  <name>  (146) 
BMCKSBZOTFNPIL-UHFFFAOYSA-N-P59-P44-P59-607683

>  <HIPPO Compound ID>  (146) 
98305

>  <energy_score>  (146) 
-7.603161

>  <HIPPO Pose ID>  (146) 
61395

>  <inspiration_score>  (146) 
None

>  <ref_pdb>  (146) 
7gp2-a

>  <inchikey>  (146) 
BMCKSBZOTFNPIL-UHFFFAOYSA-N

>  <alias>  (146) 
BMCKSBZOTFNPIL-UHFFFAOYSA-N-P59-P44-P59-607683

>  <distance_score>  (146) 
1.832831

>  <ref_mols>  (146) 
7goy-a,7gp2-a

>  <smiles>  (146) 
Cc1c(Cl)cnn1CCNC(=O)CC(c1c[nH]c2c(Br)cccc12)C(C)C

$$$$
VJOIGCRBZFCYGX-UHFFFAOYSA-N-P44-P44-P59-607683
     RDKit          3D

 27 29  0  0  0  0  0  0  0  0999 V2000
    2.8657   -3.1349   29.9896 C   0  0  0  0  0  0  0  0  0  0  0  0
    1.6688   -3.1089   29.0481 C   0  0  0  0  0  0  0  0  0  0  0  0
    0.3297   -2.9066   29.7794 C   0  0  2  0  0  0  0  0  0  0  0  0
   -0.8751   -3.0057   28.8552 C   0  0  0  0  0  0  0  0  0  0  0  0
   -1.1021   -1.8790   27.9895 N   0  0  0  0  0  0  0  0  0  0  0  0
   -1.8781   -0.5622   28.2362 C   0  0  0  0  0  0  0  0  0  0  0  0
   -2.3859   -0.1554   29.2021 O   0  0  0  0  0  0  0  0  0  0  0  0
   -1.9294    0.0827   26.8535 C   0  0  0  0  0  0  0  0  0  0  0  0
   -2.5907    1.4411   26.7196 C   0  0  0  0  0  0  0  0  0  0  0  0
   -1.6830    2.5350   27.1181 C   0  0  0  0  0  0  0  0  0  0  0  0
   -0.9107    2.5450   28.2543 C   0  0  0  0  0  0  0  0  0  0  0  0
   -0.2433    3.7236   28.3222 N   0  0  0  0  0  0  0  0  0  0  0  0
   -0.5386    4.4788   27.2182 C   0  0  0  0  0  0  0  0  0  0  0  0
   -0.0956    5.7535   26.8665 C   0  0  0  0  0  0  0  0  0  0  0  0
   -0.5822    6.3014   25.6758 C   0  0  0  0  0  0  0  0  0  0  0  0
   -0.0571    7.8728   25.1985 Cl  0  0  0  0  0  0  0  0  0  0  0  0
   -1.4824    5.6090   24.8719 C   0  0  0  0  0  0  0  0  0  0  0  0
   -1.9301    4.3375   25.2484 C   0  0  0  0  0  0  0  0  0  0  0  0
   -1.4455    3.7604   26.4397 C   0  0  0  0  0  0  0  0  0  0  0  0
    0.1415   -1.7389   30.6168 N   0  0  0  0  0  0  0  0  0  0  0  0
   -0.7141   -1.9083   31.6538 N   0  0  0  0  0  0  0  0  0  0  0  0
   -0.9096   -0.6739   32.1217 C   0  0  0  0  0  0  0  0  0  0  0  0
   -1.9499   -0.4823   33.1541 C   0  0  0  0  0  0  0  0  0  0  0  0
   -0.0365    0.2490   31.4986 C   0  0  0  0  0  0  0  0  0  0  0  0
    0.2508    1.8614   31.9321 Cl  0  0  0  0  0  0  0  0  0  0  0  0
    0.5148   -0.4435   30.4548 C   0  0  0  0  0  0  0  0  0  0  0  0
    1.4253    0.0911   29.1188 Cl  0  0  0  0  0  0  0  0  0  0  0  0
  1  2  1  0
  3  2  1  6
  3  4  1  0
  4  5  1  0
  5  6  1  0
  6  7  2  0
  6  8  1  0
  8  9  1  0
  9 10  1  0
 10 11  2  0
 11 12  1  0
 12 13  1  0
 13 14  2  0
 14 15  1  0
 15 16  1  0
 15 17  2  0
 17 18  1  0
 18 19  2  0
  3 20  1  0
 20 21  1  0
 21 22  2  0
 22 23  1  0
 22 24  1  0
 24 25  1  0
 24 26  2  0
 26 27  1  0
 19 10  1  0
 26 20  1  0
 19 13  1  0
M  END
>  <name>  (147) 
VJOIGCRBZFCYGX-UHFFFAOYSA-N-P44-P44-P59-607683

>  <HIPPO Compound ID>  (147) 
98307

>  <energy_score>  (147) 
-16.227697

>  <HIPPO Pose ID>  (147) 
61398

>  <inspiration_score>  (147) 
None

>  <ref_pdb>  (147) 
7gp2-a

>  <inchikey>  (147) 
VJOIGCRBZFCYGX-UHFFFAOYSA-N

>  <alias>  (147) 
VJOIGCRBZFCYGX-UHFFFAOYSA-N-P44-P44-P59-607683

>  <distance_score>  (147) 
1.991058

>  <ref_mols>  (147) 
7goy-a,7gp2-a

>  <smiles>  (147) 
CCC(CNC(=O)CCc1c[nH]c2cc(Cl)ccc12)n1nc(C)c(Cl)c1Cl

$$$$
MPDKOWNZOWYPRW-UHFFFAOYSA-N-P59-P44-P59-607683
     RDKit          3D

 27 29  0  0  0  0  0  0  0  0999 V2000
   -4.3270    2.2761   26.0286 C   0  0  0  0  0  0  0  0  0  0  0  0
   -3.1015    3.0340   25.6550 C   0  0  0  0  0  0  0  0  0  0  0  0
   -3.0114    3.7270   24.4371 C   0  0  0  0  0  0  0  0  0  0  0  0
   -1.8655    4.4282   24.0831 C   0  0  0  0  0  0  0  0  0  0  0  0
   -0.7687    4.4598   24.9452 C   0  0  0  0  0  0  0  0  0  0  0  0
   -0.8163    3.7619   26.1671 C   0  0  0  0  0  0  0  0  0  0  0  0
    0.0921    3.5965   27.2576 C   0  0  0  0  0  0  0  0  0  0  0  0
    1.4679    4.1612   27.3903 C   0  0  0  0  0  0  0  0  0  0  0  0
    2.5835    3.1447   27.1428 C   0  0  0  0  0  0  0  0  0  0  0  0
    2.5010    1.8520   27.9605 C   0  0  0  0  0  0  0  0  0  0  0  0
    2.4073    0.8054   27.4534 O   0  0  0  0  0  0  0  0  0  0  0  0
    2.5326    2.2418   29.4606 N   0  0  0  0  0  0  0  0  0  0  0  0
    2.5509    1.4145   30.6440 C   0  0  0  0  0  0  0  0  0  0  0  0
    1.2162    1.4152   31.3942 C   0  0  0  0  0  0  0  0  0  0  0  0
    0.2216    0.4219   31.0197 N   0  0  0  0  0  0  0  0  0  0  0  0
    0.1828   -0.4143   29.9496 C   0  0  0  0  0  0  0  0  0  0  0  0
   -0.7846   -1.3481   30.2300 C   0  0  0  0  0  0  0  0  0  0  0  0
   -1.0997   -2.7384   29.3303 Cl  0  0  0  0  0  0  0  0  0  0  0  0
   -1.3698   -0.9423   31.4512 C   0  0  0  0  0  0  0  0  0  0  0  0
   -2.4185   -1.6437   32.2654 C   0  0  0  0  0  0  0  0  0  0  0  0
   -3.3974   -0.7917   32.6825 F   0  0  0  0  0  0  0  0  0  0  0  0
   -3.0481   -2.6575   31.6086 F   0  0  0  0  0  0  0  0  0  0  0  0
   -1.8806   -2.1947   33.3860 F   0  0  0  0  0  0  0  0  0  0  0  0
   -0.7903    0.1995   31.8886 N   0  0  0  0  0  0  0  0  0  0  0  0
   -0.5578    2.8301   28.2011 C   0  0  0  0  0  0  0  0  0  0  0  0
   -1.7780    2.4753   27.7093 N   0  0  0  0  0  0  0  0  0  0  0  0
   -1.9747    3.0598   26.4822 C   0  0  0  0  0  0  0  0  0  0  0  0
  1  2  1  0
  2  3  2  0
  3  4  1  0
  4  5  2  0
  5  6  1  0
  6  7  1  0
  7  8  1  0
  8  9  1  0
  9 10  1  0
 10 11  2  0
 10 12  1  0
 12 13  1  0
 13 14  1  0
 14 15  1  0
 15 16  1  0
 16 17  2  0
 17 18  1  0
 17 19  1  0
 19 20  1  0
 20 21  1  0
 20 22  1  0
 20 23  1  0
 19 24  2  0
  7 25  2  0
 25 26  1  0
 26 27  1  0
 27  2  1  0
 27  6  2  0
 24 15  1  0
M  END
>  <name>  (148) 
MPDKOWNZOWYPRW-UHFFFAOYSA-N-P59-P44-P59-607683

>  <HIPPO Compound ID>  (148) 
98320

>  <energy_score>  (148) 
-10.119071

>  <HIPPO Pose ID>  (148) 
61425

>  <inspiration_score>  (148) 
None

>  <ref_pdb>  (148) 
7gp2-a

>  <inchikey>  (148) 
MPDKOWNZOWYPRW-UHFFFAOYSA-N

>  <alias>  (148) 
MPDKOWNZOWYPRW-UHFFFAOYSA-N-P59-P44-P59-607683

>  <distance_score>  (148) 
1.580903

>  <ref_mols>  (148) 
7goy-a,7gp2-a

>  <smiles>  (148) 
Cc1cccc2c(CCC(=O)NCCn3cc(Cl)c(C(F)(F)F)n3)c[nH]c12

$$$$
MCZKVONZQJYAQI-UHFFFAOYSA-N-P44-P44-P59-607683
     RDKit          3D

 27 29  0  0  0  0  0  0  0  0999 V2000
   -2.3468   -1.5709   31.9925 C   0  0  0  0  0  0  0  0  0  0  0  0
   -1.3748   -0.9637   31.0489 C   0  0  0  0  0  0  0  0  0  0  0  0
   -1.0258    0.3263   31.1731 N   0  0  0  0  0  0  0  0  0  0  0  0
   -0.1338    0.5278   30.1671 N   0  0  0  0  0  0  0  0  0  0  0  0
    0.4653    1.8431   30.0484 C   0  0  0  0  0  0  0  0  0  0  0  0
    1.7878    2.0004   29.2762 C   0  0  0  0  0  0  0  0  0  0  0  0
    1.6046    2.5006   27.9265 N   0  0  0  0  0  0  0  0  0  0  0  0
    0.7271    1.9745   26.7753 C   0  0  0  0  0  0  0  0  0  0  0  0
    0.0729    1.0146   26.7040 O   0  0  0  0  0  0  0  0  0  0  0  0
    0.8258    2.9605   25.5717 C   0  0  0  0  0  0  0  0  0  0  0  0
   -0.6084    3.1883   24.9717 C   0  0  1  0  0  0  0  0  0  0  0  0
   -1.3119    3.9574   26.0359 C   0  0  0  0  0  0  0  0  0  0  0  0
   -1.9920    3.3636   27.0821 C   0  0  0  0  0  0  0  0  0  0  0  0
   -1.8694    4.2196   28.1304 N   0  0  0  0  0  0  0  0  0  0  0  0
   -1.2013    5.3612   27.7635 C   0  0  0  0  0  0  0  0  0  0  0  0
   -0.7804    6.4645   28.5121 C   0  0  0  0  0  0  0  0  0  0  0  0
   -0.2675    7.5754   27.8398 C   0  0  0  0  0  0  0  0  0  0  0  0
   -0.1808    7.5701   26.4587 C   0  0  0  0  0  0  0  0  0  0  0  0
    0.4933    9.0892   25.5552 Br  0  0  0  0  0  0  0  0  0  0  0  0
   -0.5586    6.4437   25.7253 C   0  0  0  0  0  0  0  0  0  0  0  0
   -1.0584    5.3083   26.3867 C   0  0  0  0  0  0  0  0  0  0  0  0
   -0.6817    3.6953   23.5083 C   0  0  0  0  0  0  0  0  0  0  0  0
   -2.0038    4.3859   23.1527 C   0  0  0  0  0  0  0  0  0  0  0  0
    0.5394    4.4672   23.0014 C   0  0  0  0  0  0  0  0  0  0  0  0
    0.0784   -0.5878   29.4199 C   0  0  0  0  0  0  0  0  0  0  0  0
   -0.6791   -1.5806   29.9863 C   0  0  0  0  0  0  0  0  0  0  0  0
   -0.7182   -3.2096   29.5393 Cl  0  0  0  0  0  0  0  0  0  0  0  0
  1  2  1  0
  2  3  2  0
  3  4  1  0
  4  5  1  0
  5  6  1  0
  6  7  1  0
  7  8  1  0
  8  9  2  0
  8 10  1  0
 11 10  1  1
 11 12  1  0
 12 13  2  0
 13 14  1  0
 14 15  1  0
 15 16  2  0
 16 17  1  0
 17 18  2  0
 18 19  1  0
 18 20  1  0
 20 21  2  0
 11 22  1  0
 22 23  1  0
 22 24  1  0
  4 25  1  0
 25 26  2  0
 26 27  1  0
 26  2  1  0
 21 12  1  0
 21 15  1  0
M  END
>  <name>  (149) 
MCZKVONZQJYAQI-UHFFFAOYSA-N-P44-P44-P59-607683

>  <HIPPO Compound ID>  (149) 
98322

>  <energy_score>  (149) 
-7.862328

>  <HIPPO Pose ID>  (149) 
61428

>  <inspiration_score>  (149) 
None

>  <ref_pdb>  (149) 
7gp2-a

>  <inchikey>  (149) 
MCZKVONZQJYAQI-UHFFFAOYSA-N

>  <alias>  (149) 
MCZKVONZQJYAQI-UHFFFAOYSA-N-P44-P44-P59-607683

>  <distance_score>  (149) 
1.866551

>  <ref_mols>  (149) 
7goy-a,7gp2-a

>  <smiles>  (149) 
Cc1nn(CCNC(=O)CC(c2c[nH]c3ccc(Br)cc23)C(C)C)cc1Cl

$$$$
JVIRNHZTEXQXHA-UHFFFAOYSA-N-P59-P44-P59-607683
     RDKit          3D

 27 29  0  0  0  0  0  0  0  0999 V2000
   -3.5058    4.4596   23.6051 C   0  0  0  0  0  0  0  0  0  0  0  0
   -3.5425    3.8963   24.9153 O   0  0  0  0  0  0  0  0  0  0  0  0
   -2.3178    3.8040   25.5101 C   0  0  0  0  0  0  0  0  0  0  0  0
   -1.3471    4.7947   25.3825 C   0  0  0  0  0  0  0  0  0  0  0  0
   -0.0845    4.6134   25.9332 C   0  0  0  0  0  0  0  0  0  0  0  0
    0.1890    3.4197   26.6213 C   0  0  0  0  0  0  0  0  0  0  0  0
    1.3804    2.8767   27.1726 C   0  0  0  0  0  0  0  0  0  0  0  0
    2.7596    3.4819   27.0724 C   0  0  0  0  0  0  0  0  0  0  0  0
    3.2026    4.3023   28.2870 C   0  0  0  0  0  0  0  0  0  0  0  0
    3.5017    3.3336   29.4142 C   0  0  0  0  0  0  0  0  0  0  0  0
    4.5410    2.8236   29.5622 O   0  0  0  0  0  0  0  0  0  0  0  0
    2.1670    3.1322   30.1754 N   0  0  0  0  0  0  0  0  0  0  0  0
    1.8399    2.2662   31.1314 N   0  0  0  0  0  0  0  0  0  0  0  0
    0.7624    2.3552   32.2469 C   0  0  0  0  0  0  0  0  0  0  0  0
    0.0517    3.2329   32.5440 O   0  0  0  0  0  0  0  0  0  0  0  0
    0.7012    0.9806   32.8765 C   0  0  0  0  0  0  0  0  0  0  0  0
   -0.2021    0.1469   32.0938 N   0  0  0  0  0  0  0  0  0  0  0  0
   -0.0054   -0.3745   30.8455 C   0  0  0  0  0  0  0  0  0  0  0  0
   -1.0953   -1.1669   30.5863 C   0  0  0  0  0  0  0  0  0  0  0  0
   -1.3638   -2.0842   29.1975 Cl  0  0  0  0  0  0  0  0  0  0  0  0
   -1.8912   -1.0837   31.7486 C   0  0  0  0  0  0  0  0  0  0  0  0
   -3.1381   -1.7918   32.1014 C   0  0  0  0  0  0  0  0  0  0  0  0
   -1.3636   -0.2404   32.6449 N   0  0  0  0  0  0  0  0  0  0  0  0
    1.0384    1.6449   27.7019 C   0  0  0  0  0  0  0  0  0  0  0  0
   -0.3034    1.4351   27.5173 N   0  0  0  0  0  0  0  0  0  0  0  0
   -0.8303    2.4799   26.8016 C   0  0  0  0  0  0  0  0  0  0  0  0
   -2.1076    2.6529   26.2723 C   0  0  0  0  0  0  0  0  0  0  0  0
  1  2  1  0
  2  3  1  0
  3  4  2  0
  4  5  1  0
  5  6  2  0
  6  7  1  0
  7  8  1  0
  8  9  1  0
  9 10  1  0
 10 11  2  0
 10 12  1  0
 12 13  1  0
 13 14  1  0
 14 15  2  0
 14 16  1  0
 16 17  1  0
 17 18  1  0
 18 19  2  0
 19 20  1  0
 19 21  1  0
 21 22  1  0
 21 23  2  0
  7 24  2  0
 24 25  1  0
 25 26  1  0
 26 27  2  0
 27  3  1  0
 26  6  1  0
 23 17  1  0
M  END
>  <name>  (150) 
JVIRNHZTEXQXHA-UHFFFAOYSA-N-P59-P44-P59-607683

>  <HIPPO Compound ID>  (150) 
98333

>  <energy_score>  (150) 
-2.526081

>  <HIPPO Pose ID>  (150) 
61451

>  <inspiration_score>  (150) 
None

>  <ref_pdb>  (150) 
7gp2-a

>  <inchikey>  (150) 
JVIRNHZTEXQXHA-UHFFFAOYSA-N

>  <alias>  (150) 
JVIRNHZTEXQXHA-UHFFFAOYSA-N-P59-P44-P59-607683

>  <distance_score>  (150) 
1.805931

>  <ref_mols>  (150) 
7goy-a,7gp2-a

>  <smiles>  (150) 
COc1ccc2c(CCC(=O)NNC(=O)Cn3cc(Cl)c(C)n3)c[nH]c2c1

$$$$
XVQHHKXSKMBPQT-UHFFFAOYSA-N-P59-P44-P59-607683
     RDKit          3D

 27 29  0  0  0  0  0  0  0  0999 V2000
   -2.5214    5.7304   24.0262 C   0  0  0  0  0  0  0  0  0  0  0  0
   -2.1744    4.6793   25.0397 C   0  0  0  0  0  0  0  0  0  0  0  0
   -2.8870    3.4800   25.0897 C   0  0  0  0  0  0  0  0  0  0  0  0
   -2.5742    2.4700   25.9996 C   0  0  0  0  0  0  0  0  0  0  0  0
   -1.4963    2.7004   26.8502 C   0  0  0  0  0  0  0  0  0  0  0  0
   -0.9329    1.8783   27.7848 N   0  0  0  0  0  0  0  0  0  0  0  0
    0.1759    2.4777   28.3106 C   0  0  0  0  0  0  0  0  0  0  0  0
    0.2342    3.7887   27.8773 C   0  0  0  0  0  0  0  0  0  0  0  0
    1.2504    4.8401   28.2642 C   0  0  0  0  0  0  0  0  0  0  0  0
    1.3404    5.1853   29.7630 C   0  0  0  0  0  0  0  0  0  0  0  0
    1.9696    4.0138   30.5027 C   0  0  0  0  0  0  0  0  0  0  0  0
    3.1171    3.7948   30.4774 O   0  0  0  0  0  0  0  0  0  0  0  0
    0.8041    3.2057   31.1383 N   0  0  0  0  0  0  0  0  0  0  0  0
    0.8031    2.0042   31.7441 N   0  0  0  0  0  0  0  0  0  0  0  0
    0.0317    1.5066   33.0048 C   0  0  0  0  0  0  0  0  0  0  0  0
   -0.6584    2.0886   33.7505 O   0  0  0  0  0  0  0  0  0  0  0  0
    0.2449   -0.0078   33.0738 C   0  0  0  0  0  0  0  0  0  0  0  0
   -0.0549   -0.6113   31.7767 N   0  0  0  0  0  0  0  0  0  0  0  0
    0.9310   -0.5920   30.8478 N   0  0  0  0  0  0  0  0  0  0  0  0
    0.3177   -0.9085   29.7023 C   0  0  0  0  0  0  0  0  0  0  0  0
    1.0683   -0.9613   28.4209 C   0  0  0  0  0  0  0  0  0  0  0  0
   -1.0519   -1.1423   29.9119 C   0  0  0  0  0  0  0  0  0  0  0  0
   -2.1367   -1.4532   28.6669 Cl  0  0  0  0  0  0  0  0  0  0  0  0
   -1.2635   -1.0273   31.2707 C   0  0  0  0  0  0  0  0  0  0  0  0
   -2.4748   -1.2329   32.1001 C   0  0  0  0  0  0  0  0  0  0  0  0
   -0.7746    3.8969   26.8653 C   0  0  0  0  0  0  0  0  0  0  0  0
   -1.1217    4.8991   25.9388 C   0  0  0  0  0  0  0  0  0  0  0  0
  1  2  1  0
  2  3  2  0
  3  4  1  0
  4  5  2  0
  5  6  1  0
  6  7  1  0
  7  8  2  0
  8  9  1  0
  9 10  1  0
 10 11  1  0
 11 12  2  0
 11 13  1  0
 13 14  1  0
 14 15  1  0
 15 16  2  0
 15 17  1  0
 17 18  1  0
 18 19  1  0
 19 20  2  0
 20 21  1  0
 20 22  1  0
 22 23  1  0
 22 24  2  0
 24 25  1  0
  8 26  1  0
 26 27  2  0
 27  2  1  0
 26  5  1  0
 24 18  1  0
M  END
>  <name>  (151) 
XVQHHKXSKMBPQT-UHFFFAOYSA-N-P59-P44-P59-607683

>  <HIPPO Compound ID>  (151) 
98335

>  <energy_score>  (151) 
-7.809103

>  <HIPPO Pose ID>  (151) 
61455

>  <inspiration_score>  (151) 
None

>  <ref_pdb>  (151) 
7gp2-a

>  <inchikey>  (151) 
XVQHHKXSKMBPQT-UHFFFAOYSA-N

>  <alias>  (151) 
XVQHHKXSKMBPQT-UHFFFAOYSA-N-P59-P44-P59-607683

>  <distance_score>  (151) 
1.355293

>  <ref_mols>  (151) 
7goy-a,7gp2-a

>  <smiles>  (151) 
Cc1ccc2[nH]cc(CCC(=O)NNC(=O)Cn3nc(C)c(Cl)c3C)c2c1

$$$$
MXIUPJWCQVJUMZ-UHFFFAOYSA-N-P59-P44-P59-607683
     RDKit          3D

 27 29  0  0  0  0  0  0  0  0999 V2000
   -2.2247    5.5674   23.5928 C   0  0  0  0  0  0  0  0  0  0  0  0
   -1.9889    4.5772   24.6949 C   0  0  0  0  0  0  0  0  0  0  0  0
   -2.8529    3.4933   24.8591 C   0  0  0  0  0  0  0  0  0  0  0  0
   -2.7015    2.5684   25.8936 C   0  0  0  0  0  0  0  0  0  0  0  0
   -1.6650    2.7965   26.7926 C   0  0  0  0  0  0  0  0  0  0  0  0
   -1.3133    2.0968   27.9137 N   0  0  0  0  0  0  0  0  0  0  0  0
   -0.3219    2.7624   28.5767 C   0  0  0  0  0  0  0  0  0  0  0  0
    0.0787    3.8469   27.8168 C   0  0  0  0  0  0  0  0  0  0  0  0
    1.1782    4.8202   28.1499 C   0  0  0  0  0  0  0  0  0  0  0  0
    2.5976    4.3717   27.7435 C   0  0  0  0  0  0  0  0  0  0  0  0
    2.8231    2.8800   27.9562 C   0  0  0  0  0  0  0  0  0  0  0  0
    3.0362    2.1391   27.0783 O   0  0  0  0  0  0  0  0  0  0  0  0
    2.6065    2.6101   29.4715 N   0  0  0  0  0  0  0  0  0  0  0  0
    2.5203    1.4612   30.1417 N   0  0  0  0  0  0  0  0  0  0  0  0
    2.1427    1.1834   31.6257 C   0  0  0  0  0  0  0  0  0  0  0  0
    1.9261    1.9250   32.5039 O   0  0  0  0  0  0  0  0  0  0  0  0
    1.9694   -0.3344   31.7972 C   0  0  2  0  0  0  0  0  0  0  0  0
    3.1277   -1.2078   31.3274 C   0  0  0  0  0  0  0  0  0  0  0  0
    0.6693   -0.7072   31.2250 N   0  0  0  0  0  0  0  0  0  0  0  0
    0.3247   -0.8227   29.9078 C   0  0  0  0  0  0  0  0  0  0  0  0
   -1.0170   -1.1037   29.8852 C   0  0  0  0  0  0  0  0  0  0  0  0
   -1.9696   -1.2750   28.5072 Cl  0  0  0  0  0  0  0  0  0  0  0  0
   -1.4021   -1.1953   31.2392 C   0  0  0  0  0  0  0  0  0  0  0  0
   -2.7249   -1.5228   31.8189 C   0  0  0  0  0  0  0  0  0  0  0  0
   -0.3729   -0.9276   32.0534 N   0  0  0  0  0  0  0  0  0  0  0  0
   -0.7964    3.8857   26.6903 C   0  0  0  0  0  0  0  0  0  0  0  0
   -0.9516    4.7781   25.6123 C   0  0  0  0  0  0  0  0  0  0  0  0
  1  2  1  0
  2  3  2  0
  3  4  1  0
  4  5  2  0
  5  6  1  0
  6  7  1  0
  7  8  2  0
  8  9  1  0
  9 10  1  0
 10 11  1  0
 11 12  2  0
 11 13  1  0
 13 14  1  0
 14 15  1  0
 15 16  2  0
 15 17  1  0
 17 18  1  6
 17 19  1  0
 19 20  1  0
 20 21  2  0
 21 22  1  0
 21 23  1  0
 23 24  1  0
 23 25  2  0
  8 26  1  0
 26 27  2  0
 27  2  1  0
 26  5  1  0
 25 19  1  0
M  END
>  <name>  (152) 
MXIUPJWCQVJUMZ-UHFFFAOYSA-N-P59-P44-P59-607683

>  <HIPPO Compound ID>  (152) 
98338

>  <energy_score>  (152) 
-0.187987

>  <HIPPO Pose ID>  (152) 
61461

>  <inspiration_score>  (152) 
None

>  <ref_pdb>  (152) 
7gp2-a

>  <inchikey>  (152) 
MXIUPJWCQVJUMZ-UHFFFAOYSA-N

>  <alias>  (152) 
MXIUPJWCQVJUMZ-UHFFFAOYSA-N-P59-P44-P59-607683

>  <distance_score>  (152) 
1.424644

>  <ref_mols>  (152) 
7goy-a,7gp2-a

>  <smiles>  (152) 
Cc1ccc2[nH]cc(CCC(=O)NNC(=O)C(C)n3cc(Cl)c(C)n3)c2c1

$$$$
RQXYZFKEMWKANU-UHFFFAOYSA-N-P59-P44-P59-607683
     RDKit          3D

 27 29  0  0  0  0  0  0  0  0999 V2000
   -2.7340    5.6869   23.5455 C   0  0  0  0  0  0  0  0  0  0  0  0
   -2.4577    4.6374   24.5792 C   0  0  0  0  0  0  0  0  0  0  0  0
   -3.3564    3.5962   24.7975 C   0  0  0  0  0  0  0  0  0  0  0  0
   -3.1406    2.6157   25.7742 C   0  0  0  0  0  0  0  0  0  0  0  0
   -1.9670    2.6984   26.5188 C   0  0  0  0  0  0  0  0  0  0  0  0
   -1.4648    1.8623   27.4863 N   0  0  0  0  0  0  0  0  0  0  0  0
   -0.2628    2.3403   27.9279 C   0  0  0  0  0  0  0  0  0  0  0  0
    0.0059    3.5312   27.2865 C   0  0  0  0  0  0  0  0  0  0  0  0
    1.2133    4.3970   27.4767 C   0  0  0  0  0  0  0  0  0  0  0  0
    1.2555    5.0784   28.8404 C   0  0  0  0  0  0  0  0  0  0  0  0
    1.8917    4.1532   29.8714 C   0  0  0  0  0  0  0  0  0  0  0  0
    3.0351    3.9203   29.8630 O   0  0  0  0  0  0  0  0  0  0  0  0
    0.7682    3.6285   30.7977 N   0  0  0  0  0  0  0  0  0  0  0  0
    0.8349    2.7822   31.9648 C   0  0  0  0  0  0  0  0  0  0  0  0
    1.2681    1.3491   31.6512 C   0  0  0  0  0  0  0  0  0  0  0  0
    0.1896    0.4636   31.2365 N   0  0  0  0  0  0  0  0  0  0  0  0
    0.2094   -0.4095   30.1899 C   0  0  0  0  0  0  0  0  0  0  0  0
   -0.8811   -1.2260   30.3498 C   0  0  0  0  0  0  0  0  0  0  0  0
   -1.2850   -2.5318   29.3656 Cl  0  0  0  0  0  0  0  0  0  0  0  0
   -1.5258   -0.7792   31.5265 C   0  0  0  0  0  0  0  0  0  0  0  0
   -2.7489   -1.3427   32.1867 C   0  0  0  0  0  0  0  0  0  0  0  0
   -2.6369   -1.3751   33.5399 F   0  0  0  0  0  0  0  0  0  0  0  0
   -3.0594   -2.6075   31.7896 F   0  0  0  0  0  0  0  0  0  0  0  0
   -3.8422   -0.5719   31.9322 F   0  0  0  0  0  0  0  0  0  0  0  0
   -0.8768    0.2905   32.0424 N   0  0  0  0  0  0  0  0  0  0  0  0
   -1.0581    3.7423   26.3588 C   0  0  0  0  0  0  0  0  0  0  0  0
   -1.3200    4.7290   25.3862 C   0  0  0  0  0  0  0  0  0  0  0  0
  1  2  1  0
  2  3  2  0
  3  4  1  0
  4  5  2  0
  5  6  1  0
  6  7  1  0
  7  8  2  0
  8  9  1  0
  9 10  1  0
 10 11  1  0
 11 12  2  0
 11 13  1  0
 13 14  1  0
 14 15  1  0
 15 16  1  0
 16 17  1  0
 17 18  2  0
 18 19  1  0
 18 20  1  0
 20 21  1  0
 21 22  1  0
 21 23  1  0
 21 24  1  0
 20 25  2  0
  8 26  1  0
 26 27  2  0
 27  2  1  0
 26  5  1  0
 25 16  1  0
M  END
>  <name>  (153) 
RQXYZFKEMWKANU-UHFFFAOYSA-N-P59-P44-P59-607683

>  <HIPPO Compound ID>  (153) 
98339

>  <energy_score>  (153) 
-8.770778

>  <HIPPO Pose ID>  (153) 
61463

>  <inspiration_score>  (153) 
None

>  <ref_pdb>  (153) 
7gp2-a

>  <inchikey>  (153) 
RQXYZFKEMWKANU-UHFFFAOYSA-N

>  <alias>  (153) 
RQXYZFKEMWKANU-UHFFFAOYSA-N-P59-P44-P59-607683

>  <distance_score>  (153) 
0.952683

>  <ref_mols>  (153) 
7goy-a,7gp2-a

>  <smiles>  (153) 
Cc1ccc2[nH]cc(CCC(=O)NCCn3cc(Cl)c(C(F)(F)F)n3)c2c1

$$$$
IJRARSPIMMZICH-UHFFFAOYSA-N-P59-P44-P59-607683
     RDKit          3D

 27 29  0  0  0  0  0  0  0  0999 V2000
   -1.3862    5.0932   25.7871 C   0  0  0  0  0  0  0  0  0  0  0  0
   -1.5999    3.6759   26.2269 C   0  0  0  0  0  0  0  0  0  0  0  0
   -2.8721    3.1168   26.0183 C   0  0  0  0  0  0  0  0  0  0  0  0
   -3.1658    1.8085   26.3588 C   0  0  0  0  0  0  0  0  0  0  0  0
   -2.1892    0.9731   26.8829 C   0  0  0  0  0  0  0  0  0  0  0  0
   -0.9187    1.5180   27.0620 C   0  0  0  0  0  0  0  0  0  0  0  0
    0.2310    0.8746   27.4297 N   0  0  0  0  0  0  0  0  0  0  0  0
    1.2700    1.7565   27.4727 C   0  0  0  0  0  0  0  0  0  0  0  0
    0.7853    3.0114   27.1507 C   0  0  0  0  0  0  0  0  0  0  0  0
    1.5829    4.2785   27.2038 C   0  0  0  0  0  0  0  0  0  0  0  0
    1.3956    5.0235   28.5266 C   0  0  0  0  0  0  0  0  0  0  0  0
    2.2813    4.4249   29.6150 C   0  0  0  0  0  0  0  0  0  0  0  0
    3.3466    4.8423   29.8452 O   0  0  0  0  0  0  0  0  0  0  0  0
    1.5222    3.2191   30.2242 N   0  0  0  0  0  0  0  0  0  0  0  0
    1.9545    2.2240   31.1724 C   0  0  0  0  0  0  0  0  0  0  0  0
    0.8439    1.6508   32.0386 C   0  0  0  0  0  0  0  0  0  0  0  0
    0.0048    0.6038   31.4766 N   0  0  0  0  0  0  0  0  0  0  0  0
    0.2476   -0.2597   30.4522 C   0  0  0  0  0  0  0  0  0  0  0  0
   -0.7362   -1.2206   30.5056 C   0  0  0  0  0  0  0  0  0  0  0  0
   -0.8635   -2.5765   29.5025 Cl  0  0  0  0  0  0  0  0  0  0  0  0
   -1.5183   -0.8917   31.6355 C   0  0  0  0  0  0  0  0  0  0  0  0
   -2.5989   -1.6883   32.2998 C   0  0  0  0  0  0  0  0  0  0  0  0
   -3.6500   -0.9084   32.6738 F   0  0  0  0  0  0  0  0  0  0  0  0
   -3.1091   -2.6873   31.5304 F   0  0  0  0  0  0  0  0  0  0  0  0
   -2.1317   -2.2808   33.4295 F   0  0  0  0  0  0  0  0  0  0  0  0
   -1.0944    0.2694   32.1783 N   0  0  0  0  0  0  0  0  0  0  0  0
   -0.5961    2.8475   26.7870 C   0  0  0  0  0  0  0  0  0  0  0  0
  1  2  1  0
  2  3  2  0
  3  4  1  0
  4  5  2  0
  5  6  1  0
  6  7  1  0
  7  8  1  0
  8  9  2  0
  9 10  1  0
 10 11  1  0
 11 12  1  0
 12 13  2  0
 12 14  1  0
 14 15  1  0
 15 16  1  0
 16 17  1  0
 17 18  1  0
 18 19  2  0
 19 20  1  0
 19 21  1  0
 21 22  1  0
 22 23  1  0
 22 24  1  0
 22 25  1  0
 21 26  2  0
  9 27  1  0
 27  2  1  0
 27  6  2  0
 26 17  1  0
M  END
>  <name>  (154) 
IJRARSPIMMZICH-UHFFFAOYSA-N-P59-P44-P59-607683

>  <HIPPO Compound ID>  (154) 
98350

>  <energy_score>  (154) 
-19.12453

>  <HIPPO Pose ID>  (154) 
61485

>  <inspiration_score>  (154) 
None

>  <ref_pdb>  (154) 
7gp2-a

>  <inchikey>  (154) 
IJRARSPIMMZICH-UHFFFAOYSA-N

>  <alias>  (154) 
IJRARSPIMMZICH-UHFFFAOYSA-N-P59-P44-P59-607683

>  <distance_score>  (154) 
1.20292

>  <ref_mols>  (154) 
7goy-a,7gp2-a

>  <smiles>  (154) 
Cc1cccc2[nH]cc(CCC(=O)NCCn3cc(Cl)c(C(F)(F)F)n3)c12

$$$$
FGPMSDVKCLTFMG-UHFFFAOYSA-N-P44-P44-P59-607683
     RDKit          3D

 27 29  0  0  0  0  0  0  0  0999 V2000
    1.2386    0.6779   33.9833 C   0  0  0  0  0  0  0  0  0  0  0  0
    0.5347    1.7347   33.1381 C   0  0  0  0  0  0  0  0  0  0  0  0
    0.5950    1.4726   31.6020 C   0  0  1  0  0  0  0  0  0  0  0  0
    2.0629    1.5777   31.1648 C   0  0  0  0  0  0  0  0  0  0  0  0
    2.2460    1.9596   29.7920 N   0  0  0  0  0  0  0  0  0  0  0  0
    3.3761    1.6135   28.7964 C   0  0  0  0  0  0  0  0  0  0  0  0
    4.2931    0.9033   28.9118 O   0  0  0  0  0  0  0  0  0  0  0  0
    3.0705    2.3565   27.5146 C   0  0  0  0  0  0  0  0  0  0  0  0
    1.9661    1.6873   26.6922 C   0  0  0  0  0  0  0  0  0  0  0  0
    0.5579    2.1454   26.9886 C   0  0  0  0  0  0  0  0  0  0  0  0
   -0.5889    1.4310   27.3284 C   0  0  0  0  0  0  0  0  0  0  0  0
   -0.9729    0.0029   27.3137 C   0  0  0  0  0  0  0  0  0  0  0  0
   -1.5226    2.3419   27.7428 N   0  0  0  0  0  0  0  0  0  0  0  0
   -1.0537    3.6044   27.5342 C   0  0  0  0  0  0  0  0  0  0  0  0
   -1.6295    4.8241   27.8286 C   0  0  0  0  0  0  0  0  0  0  0  0
   -0.9842    5.9949   27.4191 C   0  0  0  0  0  0  0  0  0  0  0  0
    0.1950    5.9327   26.6967 C   0  0  0  0  0  0  0  0  0  0  0  0
    0.7745    4.6929   26.4319 C   0  0  0  0  0  0  0  0  0  0  0  0
    0.1651    3.5123   26.9012 C   0  0  0  0  0  0  0  0  0  0  0  0
   -0.1659    0.2721   31.2346 N   0  0  0  0  0  0  0  0  0  0  0  0
   -1.3926    0.1437   31.8320 N   0  0  0  0  0  0  0  0  0  0  0  0
   -1.7639   -1.1186   31.5833 C   0  0  0  0  0  0  0  0  0  0  0  0
   -2.9669   -1.6766   32.2433 C   0  0  0  0  0  0  0  0  0  0  0  0
   -0.8673   -1.7538   30.7074 C   0  0  0  0  0  0  0  0  0  0  0  0
   -0.9363   -3.3429   30.1399 Cl  0  0  0  0  0  0  0  0  0  0  0  0
    0.0976   -0.8181   30.4525 C   0  0  0  0  0  0  0  0  0  0  0  0
    1.4087   -0.9750   29.3903 Cl  0  0  0  0  0  0  0  0  0  0  0  0
  1  2  1  0
  3  2  1  1
  3  4  1  0
  4  5  1  0
  5  6  1  0
  6  7  2  0
  6  8  1  0
  8  9  1  0
  9 10  1  0
 10 11  2  0
 11 12  1  0
 11 13  1  0
 13 14  1  0
 14 15  2  0
 15 16  1  0
 16 17  2  0
 17 18  1  0
 18 19  2  0
  3 20  1  0
 20 21  1  0
 21 22  2  0
 22 23  1  0
 22 24  1  0
 24 25  1  0
 24 26  2  0
 26 27  1  0
 19 10  1  0
 26 20  1  0
 19 14  1  0
M  END
>  <name>  (155) 
FGPMSDVKCLTFMG-UHFFFAOYSA-N-P44-P44-P59-607683

>  <HIPPO Compound ID>  (155) 
98353

>  <energy_score>  (155) 
-2.919129

>  <HIPPO Pose ID>  (155) 
61490

>  <inspiration_score>  (155) 
None

>  <ref_pdb>  (155) 
7gp2-a

>  <inchikey>  (155) 
FGPMSDVKCLTFMG-UHFFFAOYSA-N

>  <alias>  (155) 
FGPMSDVKCLTFMG-UHFFFAOYSA-N-P44-P44-P59-607683

>  <distance_score>  (155) 
1.687408

>  <ref_mols>  (155) 
7goy-a,7gp2-a

>  <smiles>  (155) 
CCC(CNC(=O)CCc1c(C)[nH]c2ccccc12)n1nc(C)c(Cl)c1Cl

$$$$
UFUAWFLWFNLNKA-UHFFFAOYSA-N-P44-P44-P59-607683
     RDKit          3D

 27 29  0  0  0  0  0  0  0  0999 V2000
   -2.8413   -1.3685   32.3688 C   0  0  0  0  0  0  0  0  0  0  0  0
   -1.5216   -0.8782   31.9011 C   0  0  0  0  0  0  0  0  0  0  0  0
   -0.9325    0.1581   32.5245 N   0  0  0  0  0  0  0  0  0  0  0  0
    0.2816    0.2405   31.9341 N   0  0  0  0  0  0  0  0  0  0  0  0
    1.2748    1.1823   32.4504 C   0  0  1  0  0  0  0  0  0  0  0  0
    2.4052    0.4430   33.1639 C   0  0  0  0  0  0  0  0  0  0  0  0
    1.7880    2.0411   31.2887 C   0  0  0  0  0  0  0  0  0  0  0  0
    2.7881    1.7156   30.7120 O   0  0  0  0  0  0  0  0  0  0  0  0
    0.8531    3.1158   31.0278 N   0  0  0  0  0  0  0  0  0  0  0  0
    0.7882    4.0003   30.0156 N   0  0  0  0  0  0  0  0  0  0  0  0
    1.7370    4.9836   29.5593 C   0  0  0  0  0  0  0  0  0  0  0  0
    2.7940    5.3211   30.0123 O   0  0  0  0  0  0  0  0  0  0  0  0
    1.2703    5.5639   28.2224 C   0  0  0  0  0  0  0  0  0  0  0  0
    1.6015    4.6630   27.0113 C   0  0  1  0  0  0  0  0  0  0  0  0
    3.1115    4.4711   26.8371 C   0  0  0  0  0  0  0  0  0  0  0  0
    0.8339    3.3588   27.0332 C   0  0  0  0  0  0  0  0  0  0  0  0
    1.2641    2.1328   27.5113 C   0  0  0  0  0  0  0  0  0  0  0  0
    0.2252    1.2470   27.4490 N   0  0  0  0  0  0  0  0  0  0  0  0
   -0.8823    1.8662   26.9283 C   0  0  0  0  0  0  0  0  0  0  0  0
   -2.1612    1.3569   26.7006 C   0  0  0  0  0  0  0  0  0  0  0  0
   -3.0951    2.2075   26.1101 C   0  0  0  0  0  0  0  0  0  0  0  0
   -2.7529    3.5025   25.7404 C   0  0  0  0  0  0  0  0  0  0  0  0
   -1.4791    4.0090   26.0046 C   0  0  0  0  0  0  0  0  0  0  0  0
   -0.5207    3.1742   26.6092 C   0  0  0  0  0  0  0  0  0  0  0  0
    0.4312   -0.6288   30.8908 C   0  0  0  0  0  0  0  0  0  0  0  0
   -0.7165   -1.3764   30.8502 C   0  0  0  0  0  0  0  0  0  0  0  0
   -1.0586   -2.6527   29.7963 Cl  0  0  0  0  0  0  0  0  0  0  0  0
  1  2  1  0
  2  3  2  0
  3  4  1  0
  4  5  1  0
  5  6  1  6
  5  7  1  0
  7  8  2  0
  7  9  1  0
  9 10  1  0
 10 11  1  0
 11 12  2  0
 11 13  1  0
 13 14  1  0
 14 15  1  1
 14 16  1  0
 16 17  2  0
 17 18  1  0
 18 19  1  0
 19 20  2  0
 20 21  1  0
 21 22  2  0
 22 23  1  0
 23 24  2  0
  4 25  1  0
 25 26  2  0
 26 27  1  0
 26  2  1  0
 24 16  1  0
 24 19  1  0
M  END
>  <name>  (156) 
UFUAWFLWFNLNKA-UHFFFAOYSA-N-P44-P44-P59-607683

>  <HIPPO Compound ID>  (156) 
98364

>  <energy_score>  (156) 
-13.733897

>  <HIPPO Pose ID>  (156) 
61512

>  <inspiration_score>  (156) 
None

>  <ref_pdb>  (156) 
7gp2-a

>  <inchikey>  (156) 
UFUAWFLWFNLNKA-UHFFFAOYSA-N

>  <alias>  (156) 
UFUAWFLWFNLNKA-UHFFFAOYSA-N-P44-P44-P59-607683

>  <distance_score>  (156) 
1.937746

>  <ref_mols>  (156) 
7goy-a,7gp2-a

>  <smiles>  (156) 
Cc1nn(C(C)C(=O)NNC(=O)CC(C)c2c[nH]c3ccccc23)cc1Cl

$$$$
NARCRKIYQQAMKD-UHFFFAOYSA-N-P59-P44-P59-607683
     RDKit          3D

 27 29  0  0  0  0  0  0  0  0999 V2000
   -0.0212    1.9752   33.9014 C   0  0  0  0  0  0  0  0  0  0  0  0
    1.0618    1.2537   33.1063 C   0  0  0  0  0  0  0  0  0  0  0  0
    0.9080    1.3501   31.5515 C   0  0  1  0  0  0  0  0  0  0  0  0
    2.3353    1.3977   30.9801 C   0  0  0  0  0  0  0  0  0  0  0  0
    2.4836    1.9661   29.6668 N   0  0  0  0  0  0  0  0  0  0  0  0
    3.6286    1.8277   28.6362 C   0  0  0  0  0  0  0  0  0  0  0  0
    4.6623    1.2948   28.7223 O   0  0  0  0  0  0  0  0  0  0  0  0
    3.2210    2.6129   27.4049 C   0  0  0  0  0  0  0  0  0  0  0  0
    2.2290    1.8552   26.5254 C   0  0  0  0  0  0  0  0  0  0  0  0
    0.7824    2.1966   26.7825 C   0  0  0  0  0  0  0  0  0  0  0  0
   -0.2347    1.3359   27.1574 C   0  0  0  0  0  0  0  0  0  0  0  0
   -1.2978    2.0891   27.5577 N   0  0  0  0  0  0  0  0  0  0  0  0
   -0.9898    3.4143   27.3946 C   0  0  0  0  0  0  0  0  0  0  0  0
   -1.6910    4.5416   27.7818 C   0  0  0  0  0  0  0  0  0  0  0  0
   -1.1532    5.7928   27.4691 C   0  0  0  0  0  0  0  0  0  0  0  0
   -0.0353    5.9060   26.6634 C   0  0  0  0  0  0  0  0  0  0  0  0
    0.6466    4.7642   26.2227 C   0  0  0  0  0  0  0  0  0  0  0  0
    1.8441    4.9745   25.3337 C   0  0  0  0  0  0  0  0  0  0  0  0
    0.2105    3.5019   26.7047 C   0  0  0  0  0  0  0  0  0  0  0  0
    0.0122    0.2947   31.0518 N   0  0  0  0  0  0  0  0  0  0  0  0
   -1.1938    0.1903   31.6901 N   0  0  0  0  0  0  0  0  0  0  0  0
   -1.6709   -1.0089   31.3325 C   0  0  0  0  0  0  0  0  0  0  0  0
   -2.8666   -1.5564   32.0159 C   0  0  0  0  0  0  0  0  0  0  0  0
   -0.8734   -1.5964   30.3367 C   0  0  0  0  0  0  0  0  0  0  0  0
   -1.0677   -3.1050   29.6116 Cl  0  0  0  0  0  0  0  0  0  0  0  0
    0.1509   -0.7133   30.1360 C   0  0  0  0  0  0  0  0  0  0  0  0
    1.4227   -0.8824   29.0252 Cl  0  0  0  0  0  0  0  0  0  0  0  0
  1  2  1  0
  3  2  1  1
  3  4  1  0
  4  5  1  0
  5  6  1  0
  6  7  2  0
  6  8  1  0
  8  9  1  0
  9 10  1  0
 10 11  2  0
 11 12  1  0
 12 13  1  0
 13 14  2  0
 14 15  1  0
 15 16  2  0
 16 17  1  0
 17 18  1  0
 17 19  2  0
  3 20  1  0
 20 21  1  0
 21 22  2  0
 22 23  1  0
 22 24  1  0
 24 25  1  0
 24 26  2  0
 26 27  1  0
 19 10  1  0
 26 20  1  0
 19 13  1  0
M  END
>  <name>  (157) 
NARCRKIYQQAMKD-UHFFFAOYSA-N-P59-P44-P59-607683

>  <HIPPO Compound ID>  (157) 
98366

>  <energy_score>  (157) 
-15.087552

>  <HIPPO Pose ID>  (157) 
61517

>  <inspiration_score>  (157) 
None

>  <ref_pdb>  (157) 
7gp2-a

>  <inchikey>  (157) 
NARCRKIYQQAMKD-UHFFFAOYSA-N

>  <alias>  (157) 
NARCRKIYQQAMKD-UHFFFAOYSA-N-P59-P44-P59-607683

>  <distance_score>  (157) 
1.631839

>  <ref_mols>  (157) 
7goy-a,7gp2-a

>  <smiles>  (157) 
CCC(CNC(=O)CCc1c[nH]c2cccc(C)c12)n1nc(C)c(Cl)c1Cl

$$$$
BELMHCHYUUADOG-UHFFFAOYSA-N-P59-P44-P59-607683
     RDKit          3D

 28 30  0  0  0  0  0  0  0  0999 V2000
   -2.6011   -1.6724   32.1420 C   0  0  0  0  0  0  0  0  0  0  0  0
   -1.5874   -1.0774   31.2398 C   0  0  0  0  0  0  0  0  0  0  0  0
   -1.2298    0.2039   31.3754 N   0  0  0  0  0  0  0  0  0  0  0  0
   -0.1700    0.3549   30.5338 N   0  0  0  0  0  0  0  0  0  0  0  0
    0.7110    1.4984   30.7859 C   0  0  2  0  0  0  0  0  0  0  0  0
    1.9944    1.6117   29.9260 C   0  0  0  0  0  0  0  0  0  0  0  0
    1.8408    2.1942   28.6211 N   0  0  0  0  0  0  0  0  0  0  0  0
    2.5812    1.8980   27.2954 C   0  0  0  0  0  0  0  0  0  0  0  0
    3.3754    1.0836   27.0394 O   0  0  0  0  0  0  0  0  0  0  0  0
    2.0582    2.8753   26.2553 C   0  0  0  0  0  0  0  0  0  0  0  0
    0.6239    2.5370   25.8440 C   0  0  0  0  0  0  0  0  0  0  0  0
   -0.4219    3.2908   26.5499 C   0  0  0  0  0  0  0  0  0  0  0  0
   -1.4828    2.8155   27.2959 C   0  0  0  0  0  0  0  0  0  0  0  0
   -2.1141    1.4814   27.4275 C   0  0  0  0  0  0  0  0  0  0  0  0
   -1.9416    3.8951   28.0065 N   0  0  0  0  0  0  0  0  0  0  0  0
   -1.2431    5.0319   27.6642 C   0  0  0  0  0  0  0  0  0  0  0  0
   -1.2766    6.3429   28.1520 C   0  0  0  0  0  0  0  0  0  0  0  0
   -0.5755    7.3392   27.4644 C   0  0  0  0  0  0  0  0  0  0  0  0
    0.1455    7.0347   26.3206 C   0  0  0  0  0  0  0  0  0  0  0  0
    0.2159    5.7142   25.8753 C   0  0  0  0  0  0  0  0  0  0  0  0
   -0.4582    4.7005   26.5801 C   0  0  0  0  0  0  0  0  0  0  0  0
    1.2128    1.5627   32.2903 C   0  0  0  0  0  0  0  0  0  0  0  0
    1.8306    0.2480   32.7827 C   0  0  0  0  0  0  0  0  0  0  0  0
    0.1829    2.0771   33.2982 C   0  0  0  0  0  0  0  0  0  0  0  0
   -0.0962   -0.6915   29.6421 C   0  0  0  0  0  0  0  0  0  0  0  0
    0.6779   -0.7499   28.3828 C   0  0  0  0  0  0  0  0  0  0  0  0
   -0.8663   -1.6865   30.2009 C   0  0  0  0  0  0  0  0  0  0  0  0
   -0.9095   -3.3077   29.7360 Cl  0  0  0  0  0  0  0  0  0  0  0  0
  1  2  1  0
  2  3  2  0
  3  4  1  0
  4  5  1  0
  5  6  1  6
  6  7  1  0
  7  8  1  0
  8  9  2  0
  8 10  1  0
 10 11  1  0
 11 12  1  0
 12 13  2  0
 13 14  1  0
 13 15  1  0
 15 16  1  0
 16 17  2  0
 17 18  1  0
 18 19  2  0
 19 20  1  0
 20 21  2  0
  5 22  1  0
 22 23  1  0
 22 24  1  0
  4 25  1  0
 25 26  1  0
 25 27  2  0
 27 28  1  0
 27  2  1  0
 21 12  1  0
 21 16  1  0
M  END
>  <name>  (158) 
BELMHCHYUUADOG-UHFFFAOYSA-N-P59-P44-P59-607683

>  <HIPPO Compound ID>  (158) 
98379

>  <energy_score>  (158) 
-7.943247

>  <HIPPO Pose ID>  (158) 
61543

>  <inspiration_score>  (158) 
None

>  <ref_pdb>  (158) 
7gp2-a

>  <inchikey>  (158) 
BELMHCHYUUADOG-UHFFFAOYSA-N

>  <alias>  (158) 
BELMHCHYUUADOG-UHFFFAOYSA-N-P59-P44-P59-607683

>  <distance_score>  (158) 
1.770512

>  <ref_mols>  (158) 
7goy-a,7gp2-a

>  <smiles>  (158) 
Cc1nn(C(CNC(=O)CCc2c(C)[nH]c3ccccc23)C(C)C)c(C)c1Cl

$$$$
FSZHASORYOLAAD-UHFFFAOYSA-N-P44-P44-P59-607683
     RDKit          3D

 28 30  0  0  0  0  0  0  0  0999 V2000
   -2.7307   -1.3387   32.2238 C   0  0  0  0  0  0  0  0  0  0  0  0
   -1.5560   -0.8731   31.4479 C   0  0  0  0  0  0  0  0  0  0  0  0
   -0.9446    0.2699   31.7688 N   0  0  0  0  0  0  0  0  0  0  0  0
    0.1935    0.2965   31.0146 N   0  0  0  0  0  0  0  0  0  0  0  0
    1.2775    1.1753   31.5239 C   0  0  1  0  0  0  0  0  0  0  0  0
    2.6183    1.1111   30.7815 C   0  0  0  0  0  0  0  0  0  0  0  0
    2.6606    1.7405   29.4893 N   0  0  0  0  0  0  0  0  0  0  0  0
    3.7637    1.7373   28.4078 C   0  0  0  0  0  0  0  0  0  0  0  0
    4.7761    1.1622   28.3636 O   0  0  0  0  0  0  0  0  0  0  0  0
    3.2808    2.6411   27.2873 C   0  0  0  0  0  0  0  0  0  0  0  0
    2.2463    1.9395   26.4072 C   0  0  0  0  0  0  0  0  0  0  0  0
    0.8102    2.2797   26.7311 C   0  0  0  0  0  0  0  0  0  0  0  0
   -0.1950    1.4129   27.1259 C   0  0  0  0  0  0  0  0  0  0  0  0
   -1.2418    2.1575   27.5825 N   0  0  0  0  0  0  0  0  0  0  0  0
   -0.9513    3.4854   27.4124 C   0  0  0  0  0  0  0  0  0  0  0  0
   -1.6591    4.6037   27.8166 C   0  0  0  0  0  0  0  0  0  0  0  0
   -1.1360    5.8622   27.5123 C   0  0  0  0  0  0  0  0  0  0  0  0
   -0.0231    5.9924   26.7020 C   0  0  0  0  0  0  0  0  0  0  0  0
    0.6630    4.8606   26.2399 C   0  0  0  0  0  0  0  0  0  0  0  0
    1.8562    5.0927   25.3503 C   0  0  0  0  0  0  0  0  0  0  0  0
    0.2375    3.5876   26.7032 C   0  0  0  0  0  0  0  0  0  0  0  0
    0.7805    2.6358   31.8494 C   0  0  0  0  0  0  0  0  0  0  0  0
    1.8103    3.7650   31.6884 C   0  0  0  0  0  0  0  0  0  0  0  0
    0.2700    2.7241   33.3020 C   0  0  0  0  0  0  0  0  0  0  0  0
    0.1844   -0.7171   30.0700 C   0  0  0  0  0  0  0  0  0  0  0  0
    1.1796   -1.0002   29.0065 C   0  0  0  0  0  0  0  0  0  0  0  0
   -0.8929   -1.5128   30.3951 C   0  0  0  0  0  0  0  0  0  0  0  0
   -1.2628   -3.0203   29.7357 Cl  0  0  0  0  0  0  0  0  0  0  0  0
  1  2  1  0
  2  3  2  0
  3  4  1  0
  4  5  1  0
  5  6  1  6
  6  7  1  0
  7  8  1  0
  8  9  2  0
  8 10  1  0
 10 11  1  0
 11 12  1  0
 12 13  2  0
 13 14  1  0
 14 15  1  0
 15 16  2  0
 16 17  1  0
 17 18  2  0
 18 19  1  0
 19 20  1  0
 19 21  2  0
  5 22  1  0
 22 23  1  0
 22 24  1  0
  4 25  1  0
 25 26  1  0
 25 27  2  0
 27 28  1  0
 27  2  1  0
 21 12  1  0
 21 15  1  0
M  END
>  <name>  (159) 
FSZHASORYOLAAD-UHFFFAOYSA-N-P44-P44-P59-607683

>  <HIPPO Compound ID>  (159) 
98380

>  <energy_score>  (159) 
-28.270956

>  <HIPPO Pose ID>  (159) 
61544

>  <inspiration_score>  (159) 
None

>  <ref_pdb>  (159) 
7gp2-a

>  <inchikey>  (159) 
FSZHASORYOLAAD-UHFFFAOYSA-N

>  <alias>  (159) 
FSZHASORYOLAAD-UHFFFAOYSA-N-P44-P44-P59-607683

>  <distance_score>  (159) 
1.682969

>  <ref_mols>  (159) 
7goy-a,7gp2-a

>  <smiles>  (159) 
Cc1nn(C(CNC(=O)CCc2c[nH]c3cccc(C)c23)C(C)C)c(C)c1Cl

$$$$
HYNJWYPVYMBONR-UHFFFAOYSA-N-P44-P44-P59-607683
     RDKit          3D

 28 30  0  0  0  0  0  0  0  0999 V2000
   -2.7298    5.6203   23.8373 C   0  0  0  0  0  0  0  0  0  0  0  0
   -2.3505    4.5958   24.8654 C   0  0  0  0  0  0  0  0  0  0  0  0
   -3.1344    3.4595   25.0630 C   0  0  0  0  0  0  0  0  0  0  0  0
   -2.8043    2.4725   25.9937 C   0  0  0  0  0  0  0  0  0  0  0  0
   -1.6420    2.6674   26.7303 C   0  0  0  0  0  0  0  0  0  0  0  0
   -1.0616    1.8724   27.6814 N   0  0  0  0  0  0  0  0  0  0  0  0
    0.0879    2.4619   28.1157 C   0  0  0  0  0  0  0  0  0  0  0  0
    0.2209    3.7000   27.5307 C   0  0  0  0  0  0  0  0  0  0  0  0
    1.3145    4.6908   27.7928 C   0  0  0  0  0  0  0  0  0  0  0  0
    1.3009    5.2509   29.2152 C   0  0  0  0  0  0  0  0  0  0  0  0
    1.9551    4.2731   30.1885 C   0  0  0  0  0  0  0  0  0  0  0  0
    3.1119    4.1199   30.2218 O   0  0  0  0  0  0  0  0  0  0  0  0
    0.8239    3.5476   30.9598 N   0  0  0  0  0  0  0  0  0  0  0  0
    0.8902    2.5466   32.0036 C   0  0  0  0  0  0  0  0  0  0  0  0
    1.3076    1.1508   31.4731 C   0  0  1  0  0  0  0  0  0  0  0  0
    2.2032    0.3422   32.4623 C   0  0  0  0  0  0  0  0  0  0  0  0
    3.6276    0.9109   32.5030 C   0  0  0  0  0  0  0  0  0  0  0  0
    1.6466    0.2505   33.8869 C   0  0  0  0  0  0  0  0  0  0  0  0
    0.1610    0.3294   31.0384 N   0  0  0  0  0  0  0  0  0  0  0  0
   -0.9272    0.2507   31.8458 N   0  0  0  0  0  0  0  0  0  0  0  0
   -1.5580   -0.8625   31.4510 C   0  0  0  0  0  0  0  0  0  0  0  0
   -2.7077   -1.3825   32.2303 C   0  0  0  0  0  0  0  0  0  0  0  0
   -0.9396   -1.4166   30.3169 C   0  0  0  0  0  0  0  0  0  0  0  0
   -1.3287   -2.8626   29.5480 Cl  0  0  0  0  0  0  0  0  0  0  0  0
    0.1128   -0.5869   30.0049 C   0  0  0  0  0  0  0  0  0  0  0  0
    1.0720   -0.7162   28.8743 C   0  0  0  0  0  0  0  0  0  0  0  0
   -0.8463    3.8087   26.5949 C   0  0  0  0  0  0  0  0  0  0  0  0
   -1.2035    4.7807   25.6419 C   0  0  0  0  0  0  0  0  0  0  0  0
  1  2  1  0
  2  3  2  0
  3  4  1  0
  4  5  2  0
  5  6  1  0
  6  7  1  0
  7  8  2  0
  8  9  1  0
  9 10  1  0
 10 11  1  0
 11 12  2  0
 11 13  1  0
 13 14  1  0
 15 14  1  1
 15 16  1  0
 16 17  1  0
 16 18  1  0
 15 19  1  0
 19 20  1  0
 20 21  2  0
 21 22  1  0
 21 23  1  0
 23 24  1  0
 23 25  2  0
 25 26  1  0
  8 27  1  0
 27 28  2  0
 28  2  1  0
 27  5  1  0
 25 19  1  0
M  END
>  <name>  (160) 
HYNJWYPVYMBONR-UHFFFAOYSA-N-P44-P44-P59-607683

>  <HIPPO Compound ID>  (160) 
98390

>  <energy_score>  (160) 
-25.226044

>  <HIPPO Pose ID>  (160) 
61564

>  <inspiration_score>  (160) 
None

>  <ref_pdb>  (160) 
7gp2-a

>  <inchikey>  (160) 
HYNJWYPVYMBONR-UHFFFAOYSA-N

>  <alias>  (160) 
HYNJWYPVYMBONR-UHFFFAOYSA-N-P44-P44-P59-607683

>  <distance_score>  (160) 
1.115711

>  <ref_mols>  (160) 
7goy-a,7gp2-a

>  <smiles>  (160) 
Cc1ccc2[nH]cc(CCC(=O)NCC(C(C)C)n3nc(C)c(Cl)c3C)c2c1

$$$$
PPUOUOKBNGDDAK-UHFFFAOYSA-N-P59-P44-P59-607684
     RDKit          3D

 28 31  0  0  0  0  0  0  0  0999 V2000
   -9.9041   -1.3670   36.7188 C   0  0  0  0  0  0  0  0  0  0  0  0
   -8.5090   -0.8659   36.6631 C   0  0  0  0  0  0  0  0  0  0  0  0
   -7.5561   -1.5731   36.0401 N   0  0  0  0  0  0  0  0  0  0  0  0
   -6.4510   -0.7898   36.1288 N   0  0  0  0  0  0  0  0  0  0  0  0
   -5.1975   -1.2826   35.5628 C   0  0  0  0  0  0  0  0  0  0  0  0
   -4.6518   -0.4097   34.4434 C   0  0  0  0  0  0  0  0  0  0  0  0
   -4.9996    0.6924   34.2635 O   0  0  0  0  0  0  0  0  0  0  0  0
   -3.6158   -1.2824   33.6665 N   0  0  0  0  0  0  0  0  0  0  0  0
   -2.7993   -0.9654   32.6546 N   0  0  0  0  0  0  0  0  0  0  0  0
   -2.3999   -1.7782   31.3822 C   0  0  0  0  0  0  0  0  0  0  0  0
   -2.6638   -2.8724   31.0700 O   0  0  0  0  0  0  0  0  0  0  0  0
   -1.6346   -0.7426   30.5478 C   0  0  2  0  0  0  0  0  0  0  0  0
   -1.5525   -0.9642   29.0233 C   0  0  0  0  0  0  0  0  0  0  0  0
   -0.9380    0.3090   28.5182 C   0  0  0  0  0  0  0  0  0  0  0  0
    0.0690    0.8650   29.2795 C   0  0  0  0  0  0  0  0  0  0  0  0
    0.4335    2.0499   28.7165 N   0  0  0  0  0  0  0  0  0  0  0  0
   -0.4785    2.3894   27.7439 C   0  0  0  0  0  0  0  0  0  0  0  0
   -0.6360    3.5986   27.0560 C   0  0  0  0  0  0  0  0  0  0  0  0
   -1.6929    3.6985   26.1507 C   0  0  0  0  0  0  0  0  0  0  0  0
   -2.5453    2.6247   25.9308 C   0  0  0  0  0  0  0  0  0  0  0  0
   -2.3636    1.4147   26.6187 C   0  0  0  0  0  0  0  0  0  0  0  0
   -1.3255    1.2894   27.5601 C   0  0  0  0  0  0  0  0  0  0  0  0
    0.4732    0.3160   30.5407 C   0  0  0  0  0  0  0  0  0  0  0  0
   -0.3060   -0.4835   31.2026 N   0  0  0  0  0  0  0  0  0  0  0  0
   -6.6432    0.3156   36.9264 C   0  0  0  0  0  0  0  0  0  0  0  0
   -5.5811    1.2906   37.2813 C   0  0  0  0  0  0  0  0  0  0  0  0
   -7.9853    0.3120   37.2384 C   0  0  0  0  0  0  0  0  0  0  0  0
   -8.8495    1.4565   38.1443 Cl  0  0  0  0  0  0  0  0  0  0  0  0
  1  2  1  0
  2  3  2  0
  3  4  1  0
  4  5  1  0
  5  6  1  0
  6  7  2  0
  6  8  1  0
  8  9  1  0
  9 10  1  0
 10 11  2  0
 12 10  1  1
 12 13  1  0
 13 14  1  0
 14 15  2  0
 15 16  1  0
 16 17  1  0
 17 18  2  0
 18 19  1  0
 19 20  2  0
 20 21  1  0
 21 22  2  0
 15 23  1  0
 23 24  2  0
  4 25  1  0
 25 26  1  0
 25 27  2  0
 27 28  1  0
 27  2  1  0
 24 12  1  0
 22 14  1  0
 22 17  1  0
M  END
>  <name>  (161) 
PPUOUOKBNGDDAK-UHFFFAOYSA-N-P59-P44-P59-607684

>  <HIPPO Compound ID>  (161) 
98423

>  <energy_score>  (161) 
-20.688639

>  <HIPPO Pose ID>  (161) 
61631

>  <inspiration_score>  (161) 
None

>  <ref_pdb>  (161) 
7gp2-a

>  <inchikey>  (161) 
PPUOUOKBNGDDAK-UHFFFAOYSA-N

>  <alias>  (161) 
PPUOUOKBNGDDAK-UHFFFAOYSA-N-P59-P44-P59-607684

>  <distance_score>  (161) 
1.024825

>  <ref_mols>  (161) 
7goy-a,7gp2-a

>  <smiles>  (161) 
Cc1nn(CC(=O)NNC(=O)C2Cc3c([nH]c4ccccc34)C=N2)c(C)c1Cl

$$$$
HVSAMFCUPOHBPN-UHFFFAOYSA-N-P44-P44-P59-607684
     RDKit          3D

 28 31  0  0  0  0  0  0  0  0999 V2000
   -7.9210   -1.3985   36.0368 C   0  0  0  0  0  0  0  0  0  0  0  0
   -6.9884   -0.5041   35.2365 C   0  0  0  0  0  0  0  0  0  0  0  0
   -5.5040   -0.9265   35.3022 C   0  0  1  0  0  0  0  0  0  0  0  0
   -4.6904   -0.1086   34.2900 C   0  0  0  0  0  0  0  0  0  0  0  0
   -4.9479    1.0140   34.0823 O   0  0  0  0  0  0  0  0  0  0  0  0
   -3.6093   -1.0304   33.6513 N   0  0  0  0  0  0  0  0  0  0  0  0
   -2.7588   -0.8019   32.6422 N   0  0  0  0  0  0  0  0  0  0  0  0
   -2.3909   -1.6861   31.4050 C   0  0  0  0  0  0  0  0  0  0  0  0
   -2.7177   -2.7738   31.1279 O   0  0  0  0  0  0  0  0  0  0  0  0
   -1.5508   -0.7240   30.5538 C   0  0  2  0  0  0  0  0  0  0  0  0
   -1.4484   -0.9690   29.0337 C   0  0  0  0  0  0  0  0  0  0  0  0
   -0.8336    0.3064   28.5276 C   0  0  0  0  0  0  0  0  0  0  0  0
    0.1610    0.8694   29.3013 C   0  0  0  0  0  0  0  0  0  0  0  0
    0.5119    2.0649   28.7519 N   0  0  0  0  0  0  0  0  0  0  0  0
   -0.3990    2.4009   27.7767 C   0  0  0  0  0  0  0  0  0  0  0  0
   -0.5733    3.6163   27.1034 C   0  0  0  0  0  0  0  0  0  0  0  0
   -1.6252    3.7104   26.1916 C   0  0  0  0  0  0  0  0  0  0  0  0
   -2.4552    2.6243   25.9492 C   0  0  0  0  0  0  0  0  0  0  0  0
   -2.2574    1.4093   26.6240 C   0  0  0  0  0  0  0  0  0  0  0  0
   -1.2259    1.2897   27.5735 C   0  0  0  0  0  0  0  0  0  0  0  0
    0.5574    0.3180   30.5660 C   0  0  0  0  0  0  0  0  0  0  0  0
   -0.2264   -0.4841   31.2212 N   0  0  0  0  0  0  0  0  0  0  0  0
   -4.9294   -0.7330   36.6276 N   0  0  0  0  0  0  0  0  0  0  0  0
   -4.8011    0.4357   37.3267 C   0  0  0  0  0  0  0  0  0  0  0  0
   -4.2130    0.1021   38.5209 C   0  0  0  0  0  0  0  0  0  0  0  0
   -3.7968    1.1199   39.8033 Cl  0  0  0  0  0  0  0  0  0  0  0  0
   -4.0256   -1.2881   38.4566 C   0  0  0  0  0  0  0  0  0  0  0  0
   -4.4664   -1.8041   37.3034 N   0  0  0  0  0  0  0  0  0  0  0  0
  1  2  1  0
  3  2  1  1
  3  4  1  0
  4  5  2  0
  4  6  1  0
  6  7  1  0
  7  8  1  0
  8  9  2  0
 10  8  1  1
 10 11  1  0
 11 12  1  0
 12 13  2  0
 13 14  1  0
 14 15  1  0
 15 16  2  0
 16 17  1  0
 17 18  2  0
 18 19  1  0
 19 20  2  0
 13 21  1  0
 21 22  2  0
  3 23  1  0
 23 24  1  0
 24 25  2  0
 25 26  1  0
 25 27  1  0
 27 28  2  0
 22 10  1  0
 28 23  1  0
 20 12  1  0
 20 15  1  0
M  END
>  <name>  (162) 
HVSAMFCUPOHBPN-UHFFFAOYSA-N-P44-P44-P59-607684

>  <HIPPO Compound ID>  (162) 
98425

>  <energy_score>  (162) 
-8.85961

>  <HIPPO Pose ID>  (162) 
61634

>  <inspiration_score>  (162) 
None

>  <ref_pdb>  (162) 
7gp2-a

>  <inchikey>  (162) 
HVSAMFCUPOHBPN-UHFFFAOYSA-N

>  <alias>  (162) 
HVSAMFCUPOHBPN-UHFFFAOYSA-N-P44-P44-P59-607684

>  <distance_score>  (162) 
1.03395

>  <ref_mols>  (162) 
7goy-a,7gp2-a

>  <smiles>  (162) 
CCC(C(=O)NNC(=O)C1Cc2c([nH]c3ccccc23)C=N1)n1cc(Cl)cn1

$$$$
IZXMEWITMVTTLQ-UHFFFAOYSA-N-P44-P44-P59-607684
     RDKit          3D

 28 31  0  0  0  0  0  0  0  0999 V2000
   -2.7389   -2.7984   31.1390 O   0  0  0  0  0  0  0  0  0  0  0  0
   -2.5001   -1.7211   31.5229 C   0  0  0  0  0  0  0  0  0  0  0  0
   -2.9242   -1.0007   32.8413 N   0  0  0  0  0  0  0  0  0  0  0  0
   -3.8071   -1.4321   33.9060 C   0  0  0  0  0  0  0  0  0  0  0  0
   -4.9443   -0.4361   34.1031 C   0  0  0  0  0  0  0  0  0  0  0  0
   -5.8622   -0.7852   35.1652 N   0  0  0  0  0  0  0  0  0  0  0  0
   -7.1314   -1.2563   35.0154 C   0  0  0  0  0  0  0  0  0  0  0  0
   -7.6869   -1.2518   36.2694 C   0  0  0  0  0  0  0  0  0  0  0  0
   -9.2572   -1.7300   36.6889 Cl  0  0  0  0  0  0  0  0  0  0  0  0
   -6.6706   -0.7771   37.1359 C   0  0  0  0  0  0  0  0  0  0  0  0
   -6.7940   -0.5919   38.6190 C   0  0  0  0  0  0  0  0  0  0  0  0
   -7.1806   -1.7460   39.2295 F   0  0  0  0  0  0  0  0  0  0  0  0
   -5.6390   -0.2031   39.2189 F   0  0  0  0  0  0  0  0  0  0  0  0
   -7.7315    0.3425   38.9341 F   0  0  0  0  0  0  0  0  0  0  0  0
   -5.5401   -0.5127   36.4433 N   0  0  0  0  0  0  0  0  0  0  0  0
   -1.7443   -0.6413   30.7259 C   0  0  2  0  0  0  0  0  0  0  0  0
   -1.5382   -0.8952   29.2130 C   0  0  0  0  0  0  0  0  0  0  0  0
   -0.9268    0.3764   28.7066 C   0  0  0  0  0  0  0  0  0  0  0  0
    0.0133    0.9791   29.5137 C   0  0  0  0  0  0  0  0  0  0  0  0
    0.3945    2.1508   28.9333 N   0  0  0  0  0  0  0  0  0  0  0  0
   -0.4644    2.4433   27.8984 C   0  0  0  0  0  0  0  0  0  0  0  0
   -0.6105    3.6320   27.1725 C   0  0  0  0  0  0  0  0  0  0  0  0
   -1.6176    3.6859   26.2083 C   0  0  0  0  0  0  0  0  0  0  0  0
   -2.4257    2.5841   25.9624 C   0  0  0  0  0  0  0  0  0  0  0  0
   -2.2489    1.3925   26.6838 C   0  0  0  0  0  0  0  0  0  0  0  0
   -1.2718    1.3181   27.6936 C   0  0  0  0  0  0  0  0  0  0  0  0
    0.3355    0.4842   30.8203 C   0  0  0  0  0  0  0  0  0  0  0  0
   -0.4727   -0.3057   31.4575 N   0  0  0  0  0  0  0  0  0  0  0  0
  1  2  2  0
  2  3  1  0
  3  4  1  0
  4  5  1  0
  5  6  1  0
  6  7  1  0
  7  8  2  0
  8  9  1  0
  8 10  1  0
 10 11  1  0
 11 12  1  0
 11 13  1  0
 11 14  1  0
 10 15  2  0
 16  2  1  1
 16 17  1  0
 17 18  1  0
 18 19  2  0
 19 20  1  0
 20 21  1  0
 21 22  2  0
 22 23  1  0
 23 24  2  0
 24 25  1  0
 25 26  2  0
 19 27  1  0
 27 28  2  0
 15  6  1  0
 28 16  1  0
 26 18  1  0
 26 21  1  0
M  END
>  <name>  (163) 
IZXMEWITMVTTLQ-UHFFFAOYSA-N-P44-P44-P59-607684

>  <HIPPO Compound ID>  (163) 
98427

>  <energy_score>  (163) 
-8.043401

>  <HIPPO Pose ID>  (163) 
61638

>  <inspiration_score>  (163) 
None

>  <ref_pdb>  (163) 
7gp2-a

>  <inchikey>  (163) 
IZXMEWITMVTTLQ-UHFFFAOYSA-N

>  <alias>  (163) 
IZXMEWITMVTTLQ-UHFFFAOYSA-N-P44-P44-P59-607684

>  <distance_score>  (163) 
0.994935

>  <ref_mols>  (163) 
7goy-a,7gp2-a

>  <smiles>  (163) 
O=C(NCCn1cc(Cl)c(C(F)(F)F)n1)C1Cc2c([nH]c3ccccc23)C=N1

$$$$
PMSVXZXTFDGQCL-UHFFFAOYSA-N-P59-P44-P59-607684
     RDKit          3D

 28 30  0  0  0  0  0  0  0  0999 V2000
    1.6013    0.4087   28.5607 C   0  0  0  0  0  0  0  0  0  0  0  0
    0.4108    1.1307   28.0385 C   0  0  0  0  0  0  0  0  0  0  0  0
    0.5464    2.4106   27.5824 N   0  0  0  0  0  0  0  0  0  0  0  0
   -0.5980    2.8224   26.9639 C   0  0  0  0  0  0  0  0  0  0  0  0
   -0.8454    3.9979   26.2501 C   0  0  0  0  0  0  0  0  0  0  0  0
   -2.0817    4.1214   25.6188 C   0  0  0  0  0  0  0  0  0  0  0  0
   -3.0460    3.1311   25.7479 C   0  0  0  0  0  0  0  0  0  0  0  0
   -2.8004    2.0008   26.5311 C   0  0  0  0  0  0  0  0  0  0  0  0
   -1.5443    1.8155   27.1393 C   0  0  0  0  0  0  0  0  0  0  0  0
   -0.9299    0.7841   27.9400 C   0  0  0  0  0  0  0  0  0  0  0  0
   -1.5478   -0.4670   28.5443 C   0  0  0  0  0  0  0  0  0  0  0  0
   -1.2986   -0.5758   30.0622 C   0  0  0  0  0  0  0  0  0  0  0  0
   -0.0055   -0.9283   30.3010 F   0  0  0  0  0  0  0  0  0  0  0  0
   -1.4244    0.6681   30.6324 F   0  0  0  0  0  0  0  0  0  0  0  0
   -2.2268   -1.5681   30.8343 C   0  0  0  0  0  0  0  0  0  0  0  0
   -2.4010   -2.6937   30.5638 O   0  0  0  0  0  0  0  0  0  0  0  0
   -2.8340   -0.6963   31.9849 N   0  0  0  0  0  0  0  0  0  0  0  0
   -3.6437   -1.0398   33.0121 N   0  0  0  0  0  0  0  0  0  0  0  0
   -4.6234   -0.1730   33.8620 C   0  0  0  0  0  0  0  0  0  0  0  0
   -4.9333    0.9503   33.7501 O   0  0  0  0  0  0  0  0  0  0  0  0
   -5.2338   -1.0530   34.9613 C   0  0  2  0  0  0  0  0  0  0  0  0
   -6.7498   -0.8431   35.0508 C   0  0  0  0  0  0  0  0  0  0  0  0
   -4.5904   -0.7604   36.2389 N   0  0  0  0  0  0  0  0  0  0  0  0
   -4.5191    0.4394   36.8913 C   0  0  0  0  0  0  0  0  0  0  0  0
   -3.8484    0.1958   38.0636 C   0  0  0  0  0  0  0  0  0  0  0  0
   -3.4470    1.2892   39.2872 Cl  0  0  0  0  0  0  0  0  0  0  0  0
   -3.5642   -1.1792   38.0394 C   0  0  0  0  0  0  0  0  0  0  0  0
   -4.0215   -1.7698   36.9296 N   0  0  0  0  0  0  0  0  0  0  0  0
  1  2  1  0
  2  3  1  0
  3  4  1  0
  4  5  2  0
  5  6  1  0
  6  7  2  0
  7  8  1  0
  8  9  2  0
  9 10  1  0
 10 11  1  0
 11 12  1  0
 12 13  1  0
 12 14  1  0
 12 15  1  0
 15 16  2  0
 15 17  1  0
 17 18  1  0
 18 19  1  0
 19 20  2  0
 19 21  1  0
 21 22  1  1
 21 23  1  0
 23 24  1  0
 24 25  2  0
 25 26  1  0
 25 27  1  0
 27 28  2  0
 10  2  2  0
 28 23  1  0
  9  4  1  0
M  END
>  <name>  (164) 
PMSVXZXTFDGQCL-UHFFFAOYSA-N-P59-P44-P59-607684

>  <HIPPO Compound ID>  (164) 
98449

>  <energy_score>  (164) 
-4.236122

>  <HIPPO Pose ID>  (164) 
61683

>  <inspiration_score>  (164) 
None

>  <ref_pdb>  (164) 
7gp2-a

>  <inchikey>  (164) 
PMSVXZXTFDGQCL-UHFFFAOYSA-N

>  <alias>  (164) 
PMSVXZXTFDGQCL-UHFFFAOYSA-N-P59-P44-P59-607684

>  <distance_score>  (164) 
1.826436

>  <ref_mols>  (164) 
7goy-a,7gp2-a

>  <smiles>  (164) 
Cc1[nH]c2ccccc2c1CC(F)(F)C(=O)NNC(=O)C(C)n1cc(Cl)cn1

$$$$
LCBUFWZYDUDRBM-UHFFFAOYSA-N-P59-P44-P59-607684
     RDKit          3D

 28 30  0  0  0  0  0  0  0  0999 V2000
   -2.6972   -1.4267   32.0127 C   0  0  0  0  0  0  0  0  0  0  0  0
   -1.3673   -0.9210   31.5966 C   0  0  0  0  0  0  0  0  0  0  0  0
   -0.8975    0.2285   32.1102 N   0  0  0  0  0  0  0  0  0  0  0  0
    0.3472    0.3294   31.5897 N   0  0  0  0  0  0  0  0  0  0  0  0
    1.2471    1.3660   32.0594 C   0  0  0  0  0  0  0  0  0  0  0  0
    0.8955    2.7615   31.5557 C   0  0  0  0  0  0  0  0  0  0  0  0
    1.3231    3.0264   30.2029 N   0  0  0  0  0  0  0  0  0  0  0  0
    2.6298    3.1113   29.6335 C   0  0  0  0  0  0  0  0  0  0  0  0
    3.7054    2.9069   30.1137 O   0  0  0  0  0  0  0  0  0  0  0  0
    2.5634    3.5332   28.1739 C   0  0  0  0  0  0  0  0  0  0  0  0
    2.3629    2.3664   27.1932 C   0  0  2  0  0  0  0  0  0  0  0  0
    2.6816    2.9197   25.8800 O   0  0  0  0  0  0  0  0  0  0  0  0
    0.9006    1.9127   27.1666 C   0  0  0  0  0  0  0  0  0  0  0  0
    0.3828    0.7050   27.6001 C   0  0  0  0  0  0  0  0  0  0  0  0
   -0.9672    0.6847   27.3797 N   0  0  0  0  0  0  0  0  0  0  0  0
   -1.3533    1.8477   26.7632 C   0  0  0  0  0  0  0  0  0  0  0  0
   -2.6112    2.2314   26.2917 C   0  0  0  0  0  0  0  0  0  0  0  0
   -2.7057    3.4493   25.6190 C   0  0  0  0  0  0  0  0  0  0  0  0
   -1.5957    4.2717   25.4632 C   0  0  0  0  0  0  0  0  0  0  0  0
   -0.3490    3.8827   25.9602 C   0  0  0  0  0  0  0  0  0  0  0  0
   -0.2139    2.6392   26.6134 C   0  0  0  0  0  0  0  0  0  0  0  0
    3.3655    1.2081   27.5040 C   0  0  0  0  0  0  0  0  0  0  0  0
    3.1208    0.5794   28.6756 F   0  0  0  0  0  0  0  0  0  0  0  0
    4.6449    1.6481   27.5306 F   0  0  0  0  0  0  0  0  0  0  0  0
    3.3049    0.2620   26.5294 F   0  0  0  0  0  0  0  0  0  0  0  0
    0.6674   -0.7006   30.7566 C   0  0  0  0  0  0  0  0  0  0  0  0
   -0.4328   -1.5174   30.7182 C   0  0  0  0  0  0  0  0  0  0  0  0
   -0.6049   -2.9583   29.8479 Cl  0  0  0  0  0  0  0  0  0  0  0  0
  1  2  1  0
  2  3  2  0
  3  4  1  0
  4  5  1  0
  5  6  1  0
  6  7  1  0
  7  8  1  0
  8  9  2  0
  8 10  1  0
 10 11  1  0
 11 12  1  6
 11 13  1  0
 13 14  2  0
 14 15  1  0
 15 16  1  0
 16 17  2  0
 17 18  1  0
 18 19  2  0
 19 20  1  0
 20 21  2  0
 11 22  1  0
 22 23  1  0
 22 24  1  0
 22 25  1  0
  4 26  1  0
 26 27  2  0
 27 28  1  0
 27  2  1  0
 21 13  1  0
 21 16  1  0
M  END
>  <name>  (165) 
LCBUFWZYDUDRBM-UHFFFAOYSA-N-P59-P44-P59-607684

>  <HIPPO Compound ID>  (165) 
98465

>  <energy_score>  (165) 
-51.50703

>  <HIPPO Pose ID>  (165) 
61715

>  <inspiration_score>  (165) 
None

>  <ref_pdb>  (165) 
7gp2-a

>  <inchikey>  (165) 
LCBUFWZYDUDRBM-UHFFFAOYSA-N

>  <alias>  (165) 
LCBUFWZYDUDRBM-UHFFFAOYSA-N-P59-P44-P59-607684

>  <distance_score>  (165) 
1.968615

>  <ref_mols>  (165) 
7goy-a,7gp2-a

>  <smiles>  (165) 
Cc1nn(CCNC(=O)CC(O)(c2c[nH]c3ccccc23)C(F)(F)F)cc1Cl

$$$$
JURPZKXQWWKHEN-UHFFFAOYSA-N-P59-P44-P59-607684
     RDKit          3D

 29 31  0  0  0  0  0  0  0  0999 V2000
    3.0048    0.7470   31.4391 C   0  0  0  0  0  0  0  0  0  0  0  0
    1.8454    1.5081   32.0620 C   0  0  0  0  0  0  0  0  0  0  0  0
    0.6493    1.8098   31.1296 C   0  0  1  0  0  0  0  0  0  0  0  0
    1.0382    2.7088   29.9399 C   0  0  0  0  0  0  0  0  0  0  0  0
   -0.0653    3.3816   29.2874 N   0  0  0  0  0  0  0  0  0  0  0  0
   -0.1433    4.8028   28.6245 C   0  0  0  0  0  0  0  0  0  0  0  0
    0.6526    5.6653   28.5794 O   0  0  0  0  0  0  0  0  0  0  0  0
   -1.5853    4.9413   27.9676 C   0  0  0  0  0  0  0  0  0  0  0  0
   -2.0666    6.1968   28.2170 F   0  0  0  0  0  0  0  0  0  0  0  0
   -2.4756    4.0685   28.5479 F   0  0  0  0  0  0  0  0  0  0  0  0
   -1.6976    4.6270   26.4693 C   0  0  0  0  0  0  0  0  0  0  0  0
   -0.9656    3.3680   26.2281 C   0  0  0  0  0  0  0  0  0  0  0  0
   -1.3255    2.0798   26.5751 C   0  0  0  0  0  0  0  0  0  0  0  0
   -2.6237    1.4666   26.9266 C   0  0  0  0  0  0  0  0  0  0  0  0
   -0.1497    1.4016   26.7480 N   0  0  0  0  0  0  0  0  0  0  0  0
    0.9203    2.2144   26.4399 C   0  0  0  0  0  0  0  0  0  0  0  0
    2.2954    1.9985   26.5288 C   0  0  0  0  0  0  0  0  0  0  0  0
    3.1555    2.9899   26.0465 C   0  0  0  0  0  0  0  0  0  0  0  0
    2.6535    4.1722   25.5159 C   0  0  0  0  0  0  0  0  0  0  0  0
    1.2751    4.3955   25.4677 C   0  0  0  0  0  0  0  0  0  0  0  0
    0.4074    3.3914   25.9258 C   0  0  0  0  0  0  0  0  0  0  0  0
   -0.1537    0.6119   30.8603 N   0  0  0  0  0  0  0  0  0  0  0  0
   -1.1645    0.3579   31.7456 N   0  0  0  0  0  0  0  0  0  0  0  0
   -1.6379   -0.8476   31.4006 C   0  0  0  0  0  0  0  0  0  0  0  0
   -2.7168   -1.4778   32.2015 C   0  0  0  0  0  0  0  0  0  0  0  0
   -0.9444   -1.3745   30.2966 C   0  0  0  0  0  0  0  0  0  0  0  0
   -1.1327   -2.9028   29.6049 Cl  0  0  0  0  0  0  0  0  0  0  0  0
   -0.0252   -0.4166   29.9688 C   0  0  0  0  0  0  0  0  0  0  0  0
    1.1627   -0.5035   28.7655 Cl  0  0  0  0  0  0  0  0  0  0  0  0
  1  2  1  0
  3  2  1  6
  3  4  1  0
  4  5  1  0
  5  6  1  0
  6  7  2  0
  6  8  1  0
  8  9  1  0
  8 10  1  0
  8 11  1  0
 11 12  1  0
 12 13  2  0
 13 14  1  0
 13 15  1  0
 15 16  1  0
 16 17  2  0
 17 18  1  0
 18 19  2  0
 19 20  1  0
 20 21  2  0
  3 22  1  0
 22 23  1  0
 23 24  2  0
 24 25  1  0
 24 26  1  0
 26 27  1  0
 26 28  2  0
 28 29  1  0
 21 12  1  0
 28 22  1  0
 21 16  1  0
M  END
>  <name>  (166) 
JURPZKXQWWKHEN-UHFFFAOYSA-N-P59-P44-P59-607684

>  <HIPPO Compound ID>  (166) 
98487

>  <energy_score>  (166) 
-1.748128

>  <HIPPO Pose ID>  (166) 
61759

>  <inspiration_score>  (166) 
None

>  <ref_pdb>  (166) 
7gp2-a

>  <inchikey>  (166) 
JURPZKXQWWKHEN-UHFFFAOYSA-N

>  <alias>  (166) 
JURPZKXQWWKHEN-UHFFFAOYSA-N-P59-P44-P59-607684

>  <distance_score>  (166) 
1.904968

>  <ref_mols>  (166) 
7goy-a,7gp2-a

>  <smiles>  (166) 
CCC(CNC(=O)C(F)(F)Cc1c(C)[nH]c2ccccc12)n1nc(C)c(Cl)c1Cl

$$$$
OWMVBZPRKKRCKV-UHFFFAOYSA-N-P59-P44-P59-607684
     RDKit          3D

 29 31  0  0  0  0  0  0  0  0999 V2000
   -2.3605   -1.2667   31.9476 C   0  0  0  0  0  0  0  0  0  0  0  0
   -1.2113   -0.4864   31.4189 C   0  0  0  0  0  0  0  0  0  0  0  0
   -0.9457    0.7424   31.8922 N   0  0  0  0  0  0  0  0  0  0  0  0
    0.1379    1.1615   31.1869 N   0  0  0  0  0  0  0  0  0  0  0  0
    0.7025    2.5081   31.4481 C   0  0  1  0  0  0  0  0  0  0  0  0
    1.8272    2.4030   32.4781 C   0  0  0  0  0  0  0  0  0  0  0  0
    1.2195    3.1789   30.1545 C   0  0  0  0  0  0  0  0  0  0  0  0
    2.2562    2.8663   29.7014 O   0  0  0  0  0  0  0  0  0  0  0  0
    0.1234    4.1588   29.6037 N   0  0  0  0  0  0  0  0  0  0  0  0
    0.0513    4.8236   28.4263 N   0  0  0  0  0  0  0  0  0  0  0  0
   -1.0204    5.8512   27.8963 C   0  0  0  0  0  0  0  0  0  0  0  0
   -1.9508    6.3265   28.4355 O   0  0  0  0  0  0  0  0  0  0  0  0
   -0.7221    6.1020   26.3915 C   0  0  0  0  0  0  0  0  0  0  0  0
   -1.1108    7.3545   25.9969 F   0  0  0  0  0  0  0  0  0  0  0  0
    0.6263    6.0755   26.1508 F   0  0  0  0  0  0  0  0  0  0  0  0
   -1.4319    5.0597   25.4709 C   0  0  0  0  0  0  0  0  0  0  0  0
   -1.2597    3.6216   25.9002 C   0  0  0  0  0  0  0  0  0  0  0  0
   -2.1944    2.6633   26.2601 C   0  0  0  0  0  0  0  0  0  0  0  0
   -3.6633    2.6142   26.1225 C   0  0  0  0  0  0  0  0  0  0  0  0
   -1.5275    1.6383   26.8847 N   0  0  0  0  0  0  0  0  0  0  0  0
   -0.1793    1.8480   26.7906 C   0  0  0  0  0  0  0  0  0  0  0  0
    0.8848    1.0770   27.2392 C   0  0  0  0  0  0  0  0  0  0  0  0
    2.1834    1.5043   26.9409 C   0  0  0  0  0  0  0  0  0  0  0  0
    2.3975    2.6373   26.1641 C   0  0  0  0  0  0  0  0  0  0  0  0
    1.3131    3.3786   25.6838 C   0  0  0  0  0  0  0  0  0  0  0  0
    0.0067    2.9987   26.0374 C   0  0  0  0  0  0  0  0  0  0  0  0
    0.6352    0.1618   30.3967 C   0  0  0  0  0  0  0  0  0  0  0  0
   -0.2539   -0.8835   30.4633 C   0  0  0  0  0  0  0  0  0  0  0  0
   -0.1765   -2.3645   29.6462 Cl  0  0  0  0  0  0  0  0  0  0  0  0
  1  2  1  0
  2  3  2  0
  3  4  1  0
  4  5  1  0
  5  6  1  1
  5  7  1  0
  7  8  2  0
  7  9  1  0
  9 10  1  0
 10 11  1  0
 11 12  2  0
 11 13  1  0
 13 14  1  0
 13 15  1  0
 13 16  1  0
 16 17  1  0
 17 18  2  0
 18 19  1  0
 18 20  1  0
 20 21  1  0
 21 22  2  0
 22 23  1  0
 23 24  2  0
 24 25  1  0
 25 26  2  0
  4 27  1  0
 27 28  2  0
 28 29  1  0
 28  2  1  0
 26 17  1  0
 26 21  1  0
M  END
>  <name>  (167) 
OWMVBZPRKKRCKV-UHFFFAOYSA-N-P59-P44-P59-607684

>  <HIPPO Compound ID>  (167) 
98493

>  <energy_score>  (167) 
-22.550424

>  <HIPPO Pose ID>  (167) 
61771

>  <inspiration_score>  (167) 
None

>  <ref_pdb>  (167) 
7gp2-a

>  <inchikey>  (167) 
OWMVBZPRKKRCKV-UHFFFAOYSA-N

>  <alias>  (167) 
OWMVBZPRKKRCKV-UHFFFAOYSA-N-P59-P44-P59-607684

>  <distance_score>  (167) 
1.957066

>  <ref_mols>  (167) 
7goy-a,7gp2-a

>  <smiles>  (167) 
Cc1nn(C(C)C(=O)NNC(=O)C(F)(F)Cc2c(C)[nH]c3ccccc23)cc1Cl

$$$$
IPSSGMPHUGLZRR-UHFFFAOYSA-N-P59-P44-P59-607684
     RDKit          3D

 29 32  0  0  0  0  0  0  0  0999 V2000
   -2.6205    5.1134   24.5561 C   0  0  0  0  0  0  0  0  0  0  0  0
   -2.0890    4.0914   25.5187 C   0  0  0  0  0  0  0  0  0  0  0  0
   -2.7088    2.8460   25.6429 C   0  0  0  0  0  0  0  0  0  0  0  0
   -2.1095    1.7833   26.3249 C   0  0  0  0  0  0  0  0  0  0  0  0
   -0.8348    2.0121   26.8413 C   0  0  0  0  0  0  0  0  0  0  0  0
    0.0863    1.1377   27.3686 N   0  0  0  0  0  0  0  0  0  0  0  0
    1.2850    1.7920   27.5658 C   0  0  0  0  0  0  0  0  0  0  0  0
    2.5454    1.1063   27.7348 C   0  0  0  0  0  0  0  0  0  0  0  0
    3.7929    1.5725   27.3537 C   0  0  0  0  0  0  0  0  0  0  0  0
    4.8465    0.6518   27.6266 C   0  0  0  0  0  0  0  0  0  0  0  0
    4.3725   -0.5111   28.1838 C   0  0  0  0  0  0  0  0  0  0  0  0
    2.6756   -0.4868   28.3494 S   0  0  0  0  0  0  0  0  0  0  0  0
    0.9922    3.1525   27.5522 C   0  0  0  0  0  0  0  0  0  0  0  0
    1.8212    4.2775   28.1023 C   0  0  0  0  0  0  0  0  0  0  0  0
    1.4324    4.6403   29.5432 C   0  0  0  0  0  0  0  0  0  0  0  0
    1.7385    3.5113   30.5346 C   0  0  0  0  0  0  0  0  0  0  0  0
    2.7329    3.4544   31.1427 O   0  0  0  0  0  0  0  0  0  0  0  0
    0.5420    2.5283   30.4725 N   0  0  0  0  0  0  0  0  0  0  0  0
    0.3649    1.2225   31.0752 C   0  0  0  0  0  0  0  0  0  0  0  0
   -0.9241    0.5457   30.6143 C   0  0  0  0  0  0  0  0  0  0  0  0
   -0.8097   -0.8547   30.3142 N   0  0  0  0  0  0  0  0  0  0  0  0
   -0.4547   -1.2068   29.0634 N   0  0  0  0  0  0  0  0  0  0  0  0
   -0.2792   -2.5231   29.1633 C   0  0  0  0  0  0  0  0  0  0  0  0
   -0.6042   -3.0016   30.4429 C   0  0  0  0  0  0  0  0  0  0  0  0
   -0.3856   -4.5865   30.9988 Cl  0  0  0  0  0  0  0  0  0  0  0  0
   -1.1085   -1.9172   31.1246 C   0  0  0  0  0  0  0  0  0  0  0  0
   -1.7677   -1.7965   32.4471 C   0  0  0  0  0  0  0  0  0  0  0  0
   -0.2418    3.2730   26.8498 C   0  0  0  0  0  0  0  0  0  0  0  0
   -0.8951    4.3390   26.2053 C   0  0  0  0  0  0  0  0  0  0  0  0
  1  2  1  0
  2  3  2  0
  3  4  1  0
  4  5  2  0
  5  6  1  0
  6  7  1  0
  7  8  1  0
  8  9  2  0
  9 10  1  0
 10 11  2  0
 11 12  1  0
  7 13  2  0
 13 14  1  0
 14 15  1  0
 15 16  1  0
 16 17  2  0
 16 18  1  0
 18 19  1  0
 19 20  1  0
 20 21  1  0
 21 22  1  0
 22 23  2  0
 23 24  1  0
 24 25  1  0
 24 26  2  0
 26 27  1  0
 13 28  1  0
 28 29  2  0
 29  2  1  0
 28  5  1  0
 12  8  1  0
 26 21  1  0
M  END
>  <name>  (168) 
IPSSGMPHUGLZRR-UHFFFAOYSA-N-P59-P44-P59-607684

>  <HIPPO Compound ID>  (168) 
98510

>  <energy_score>  (168) 
-12.608979

>  <HIPPO Pose ID>  (168) 
61805

>  <inspiration_score>  (168) 
None

>  <ref_pdb>  (168) 
7gp2-a

>  <inchikey>  (168) 
IPSSGMPHUGLZRR-UHFFFAOYSA-N

>  <alias>  (168) 
IPSSGMPHUGLZRR-UHFFFAOYSA-N-P59-P44-P59-607684

>  <distance_score>  (168) 
1.754734

>  <ref_mols>  (168) 
7goy-a,7gp2-a

>  <smiles>  (168) 
Cc1ccc2[nH]c(-c3cccs3)c(CCC(=O)NCCn3ncc(Cl)c3C)c2c1

$$$$
WCUGQGOIUITPQJ-UHFFFAOYSA-N-P44-P44-P59-607684
     RDKit          3D

 29 31  0  0  0  0  0  0  0  0999 V2000
   -2.7816   -1.3343   32.2687 C   0  0  0  0  0  0  0  0  0  0  0  0
   -1.6137   -0.8229   31.5103 C   0  0  0  0  0  0  0  0  0  0  0  0
   -1.0008    0.3062   31.8932 N   0  0  0  0  0  0  0  0  0  0  0  0
    0.1179    0.3562   31.1272 N   0  0  0  0  0  0  0  0  0  0  0  0
    1.1911    1.2452   31.5700 C   0  0  0  0  0  0  0  0  0  0  0  0
    1.7325    2.0793   30.4391 C   0  0  0  0  0  0  0  0  0  0  0  0
    2.7070    1.7774   29.8659 O   0  0  0  0  0  0  0  0  0  0  0  0
    0.7278    3.2425   30.1799 N   0  0  0  0  0  0  0  0  0  0  0  0
    0.6730    4.1391   29.1842 N   0  0  0  0  0  0  0  0  0  0  0  0
    1.7745    5.0704   28.6029 C   0  0  0  0  0  0  0  0  0  0  0  0
    2.8742    5.2532   28.9539 O   0  0  0  0  0  0  0  0  0  0  0  0
    1.1919    5.6932   27.3305 C   0  0  0  0  0  0  0  0  0  0  0  0
    1.3722    4.6820   26.1520 C   0  0  1  0  0  0  0  0  0  0  0  0
    0.3824    3.5254   26.3086 C   0  0  0  0  0  0  0  0  0  0  0  0
    0.7119    2.2999   26.8667 C   0  0  0  0  0  0  0  0  0  0  0  0
   -0.4285    1.5946   27.0889 N   0  0  0  0  0  0  0  0  0  0  0  0
   -1.4845    2.2851   26.5696 C   0  0  0  0  0  0  0  0  0  0  0  0
   -2.8188    1.9178   26.5263 C   0  0  0  0  0  0  0  0  0  0  0  0
   -3.6912    2.7250   25.8076 C   0  0  0  0  0  0  0  0  0  0  0  0
   -3.2353    3.8714   25.1715 C   0  0  0  0  0  0  0  0  0  0  0  0
   -1.9144    4.2912   25.3207 C   0  0  0  0  0  0  0  0  0  0  0  0
   -1.0078    3.4660   26.0065 C   0  0  0  0  0  0  0  0  0  0  0  0
    1.3636    5.3555   24.7486 C   0  0  0  0  0  0  0  0  0  0  0  0
    1.4888    4.3241   23.6160 C   0  0  0  0  0  0  0  0  0  0  0  0
    2.5076    6.3690   24.5903 C   0  0  0  0  0  0  0  0  0  0  0  0
    0.1211   -0.6006   30.1346 C   0  0  0  0  0  0  0  0  0  0  0  0
    1.1699   -0.7797   29.0986 C   0  0  0  0  0  0  0  0  0  0  0  0
   -0.9581   -1.4081   30.4115 C   0  0  0  0  0  0  0  0  0  0  0  0
   -1.3378   -2.8706   29.6649 Cl  0  0  0  0  0  0  0  0  0  0  0  0
  1  2  1  0
  2  3  2  0
  3  4  1  0
  4  5  1  0
  5  6  1  0
  6  7  2  0
  6  8  1  0
  8  9  1  0
  9 10  1  0
 10 11  2  0
 10 12  1  0
 13 12  1  1
 13 14  1  0
 14 15  2  0
 15 16  1  0
 16 17  1  0
 17 18  2  0
 18 19  1  0
 19 20  2  0
 20 21  1  0
 21 22  2  0
 13 23  1  0
 23 24  1  0
 23 25  1  0
  4 26  1  0
 26 27  1  0
 26 28  2  0
 28 29  1  0
 28  2  1  0
 22 14  1  0
 22 17  1  0
M  END
>  <name>  (169) 
WCUGQGOIUITPQJ-UHFFFAOYSA-N-P44-P44-P59-607684

>  <HIPPO Compound ID>  (169) 
98516

>  <energy_score>  (169) 
-10.860567

>  <HIPPO Pose ID>  (169) 
61816

>  <inspiration_score>  (169) 
None

>  <ref_pdb>  (169) 
7gp2-a

>  <inchikey>  (169) 
WCUGQGOIUITPQJ-UHFFFAOYSA-N

>  <alias>  (169) 
WCUGQGOIUITPQJ-UHFFFAOYSA-N-P44-P44-P59-607684

>  <distance_score>  (169) 
1.644396

>  <ref_mols>  (169) 
7goy-a,7gp2-a

>  <smiles>  (169) 
Cc1nn(CC(=O)NNC(=O)CC(c2c[nH]c3ccccc23)C(C)C)c(C)c1Cl

$$$$
AHRCTJPXQAQSSK-UHFFFAOYSA-N-P44-P44-P59-607684
     RDKit          3D

 29 31  0  0  0  0  0  0  0  0999 V2000
   -3.4352    4.4801   23.2688 C   0  0  0  0  0  0  0  0  0  0  0  0
   -3.4490    3.7652   24.4997 O   0  0  0  0  0  0  0  0  0  0  0  0
   -2.3956    3.9955   25.3324 C   0  0  0  0  0  0  0  0  0  0  0  0
   -1.6965    5.2000   25.3758 C   0  0  0  0  0  0  0  0  0  0  0  0
   -0.6684    5.3861   26.2962 C   0  0  0  0  0  0  0  0  0  0  0  0
   -0.3182    4.3270   27.1500 C   0  0  0  0  0  0  0  0  0  0  0  0
    0.6848    4.1728   28.1518 C   0  0  0  0  0  0  0  0  0  0  0  0
    1.6771    5.2207   28.6053 C   0  0  0  0  0  0  0  0  0  0  0  0
    1.5498    5.6681   30.0742 C   0  0  0  0  0  0  0  0  0  0  0  0
    2.0725    4.5411   30.9472 C   0  0  0  0  0  0  0  0  0  0  0  0
    3.2085    4.3794   31.1650 O   0  0  0  0  0  0  0  0  0  0  0  0
    0.8412    3.6831   31.3410 N   0  0  0  0  0  0  0  0  0  0  0  0
    0.7701    2.4927   31.9535 N   0  0  0  0  0  0  0  0  0  0  0  0
   -0.0321    2.0498   33.2081 C   0  0  0  0  0  0  0  0  0  0  0  0
   -0.6928    2.6741   33.9447 O   0  0  0  0  0  0  0  0  0  0  0  0
    0.0901    0.5162   33.2995 C   0  0  2  0  0  0  0  0  0  0  0  0
    1.4694    0.0950   33.7996 C   0  0  0  0  0  0  0  0  0  0  0  0
   -0.2566   -0.1328   32.0207 N   0  0  0  0  0  0  0  0  0  0  0  0
    0.5425    0.0890   30.9385 N   0  0  0  0  0  0  0  0  0  0  0  0
    0.0867   -0.7457   29.9987 C   0  0  0  0  0  0  0  0  0  0  0  0
    0.7275   -0.8483   28.6587 C   0  0  0  0  0  0  0  0  0  0  0  0
   -0.9916   -1.4955   30.4878 C   0  0  0  0  0  0  0  0  0  0  0  0
   -1.7208   -2.7511   29.6603 Cl  0  0  0  0  0  0  0  0  0  0  0  0
   -1.2613   -1.0330   31.7555 C   0  0  0  0  0  0  0  0  0  0  0  0
   -2.3217   -1.4239   32.7165 C   0  0  0  0  0  0  0  0  0  0  0  0
    0.6355    2.8417   28.5221 C   0  0  0  0  0  0  0  0  0  0  0  0
   -0.4783    2.2683   27.9768 N   0  0  0  0  0  0  0  0  0  0  0  0
   -1.0317    3.1265   27.0684 C   0  0  0  0  0  0  0  0  0  0  0  0
   -2.0986    2.9391   26.1949 C   0  0  0  0  0  0  0  0  0  0  0  0
  1  2  1  0
  2  3  1  0
  3  4  2  0
  4  5  1  0
  5  6  2  0
  6  7  1  0
  7  8  1  0
  8  9  1  0
  9 10  1  0
 10 11  2  0
 10 12  1  0
 12 13  1  0
 13 14  1  0
 14 15  2  0
 14 16  1  0
 16 17  1  6
 16 18  1  0
 18 19  1  0
 19 20  2  0
 20 21  1  0
 20 22  1  0
 22 23  1  0
 22 24  2  0
 24 25  1  0
  7 26  2  0
 26 27  1  0
 27 28  1  0
 28 29  2  0
 29  3  1  0
 28  6  1  0
 24 18  1  0
M  END
>  <name>  (170) 
AHRCTJPXQAQSSK-UHFFFAOYSA-N-P44-P44-P59-607684

>  <HIPPO Compound ID>  (170) 
98527

>  <energy_score>  (170) 
-17.545289

>  <HIPPO Pose ID>  (170) 
61838

>  <inspiration_score>  (170) 
None

>  <ref_pdb>  (170) 
7gp2-a

>  <inchikey>  (170) 
AHRCTJPXQAQSSK-UHFFFAOYSA-N

>  <alias>  (170) 
AHRCTJPXQAQSSK-UHFFFAOYSA-N-P44-P44-P59-607684

>  <distance_score>  (170) 
1.479044

>  <ref_mols>  (170) 
7goy-a,7gp2-a

>  <smiles>  (170) 
COc1ccc2c(CCC(=O)NNC(=O)C(C)n3nc(C)c(Cl)c3C)c[nH]c2c1

$$$$
PWZBRLGHNKCXCG-UHFFFAOYSA-N-P44-P44-P59-607684
     RDKit          3D

 29 32  0  0  0  0  0  0  0  0999 V2000
   -2.8131    5.0007   24.4647 C   0  0  0  0  0  0  0  0  0  0  0  0
   -2.2447    4.0519   25.4794 C   0  0  0  0  0  0  0  0  0  0  0  0
   -2.8298    2.8021   25.6834 C   0  0  0  0  0  0  0  0  0  0  0  0
   -2.2031    1.7998   26.4273 C   0  0  0  0  0  0  0  0  0  0  0  0
   -0.9536    2.1045   26.9619 C   0  0  0  0  0  0  0  0  0  0  0  0
   -0.0256    1.2988   27.5696 N   0  0  0  0  0  0  0  0  0  0  0  0
    1.1368    2.0033   27.8183 C   0  0  0  0  0  0  0  0  0  0  0  0
    2.3786    1.3451   28.1565 C   0  0  0  0  0  0  0  0  0  0  0  0
    3.4283    1.8001   28.9317 C   0  0  0  0  0  0  0  0  0  0  0  0
    4.5109    0.8743   29.0177 C   0  0  0  0  0  0  0  0  0  0  0  0
    4.2713   -0.2629   28.2854 C   0  0  0  0  0  0  0  0  0  0  0  0
    2.7588   -0.2029   27.5012 S   0  0  0  0  0  0  0  0  0  0  0  0
    0.8441    3.3453   27.6039 C   0  0  0  0  0  0  0  0  0  0  0  0
    1.6883    4.5532   27.8799 C   0  0  0  0  0  0  0  0  0  0  0  0
    1.2437    5.2881   29.1444 C   0  0  0  0  0  0  0  0  0  0  0  0
    1.7842    4.6200   30.4054 C   0  0  0  0  0  0  0  0  0  0  0  0
    2.8515    4.8601   30.8134 O   0  0  0  0  0  0  0  0  0  0  0  0
    0.7090    3.6331   30.9260 N   0  0  0  0  0  0  0  0  0  0  0  0
    0.6890    2.8067   32.1129 C   0  0  0  0  0  0  0  0  0  0  0  0
    1.0749    1.3464   31.8962 C   0  0  0  0  0  0  0  0  0  0  0  0
    0.0253    0.4735   31.3936 N   0  0  0  0  0  0  0  0  0  0  0  0
    0.1746   -0.4608   30.4102 C   0  0  0  0  0  0  0  0  0  0  0  0
   -0.9086   -1.2926   30.4866 C   0  0  0  0  0  0  0  0  0  0  0  0
   -1.1732   -2.6812   29.5670 Cl  0  0  0  0  0  0  0  0  0  0  0  0
   -1.6642   -0.8072   31.5750 C   0  0  0  0  0  0  0  0  0  0  0  0
   -2.8696   -1.4027   32.2004 C   0  0  0  0  0  0  0  0  0  0  0  0
   -1.1104    0.2966   32.1078 N   0  0  0  0  0  0  0  0  0  0  0  0
   -0.3949    3.3757   26.8908 C   0  0  0  0  0  0  0  0  0  0  0  0
   -1.0588    4.3706   26.1473 C   0  0  0  0  0  0  0  0  0  0  0  0
  1  2  1  0
  2  3  2  0
  3  4  1  0
  4  5  2  0
  5  6  1  0
  6  7  1  0
  7  8  1  0
  8  9  2  0
  9 10  1  0
 10 11  2  0
 11 12  1  0
  7 13  2  0
 13 14  1  0
 14 15  1  0
 15 16  1  0
 16 17  2  0
 16 18  1  0
 18 19  1  0
 19 20  1  0
 20 21  1  0
 21 22  1  0
 22 23  2  0
 23 24  1  0
 23 25  1  0
 25 26  1  0
 25 27  2  0
 13 28  1  0
 28 29  2  0
 29  2  1  0
 28  5  1  0
 12  8  1  0
 27 21  1  0
M  END
>  <name>  (171) 
PWZBRLGHNKCXCG-UHFFFAOYSA-N-P44-P44-P59-607684

>  <HIPPO Compound ID>  (171) 
98534

>  <energy_score>  (171) 
-15.032465

>  <HIPPO Pose ID>  (171) 
61852

>  <inspiration_score>  (171) 
None

>  <ref_pdb>  (171) 
7gp2-a

>  <inchikey>  (171) 
PWZBRLGHNKCXCG-UHFFFAOYSA-N

>  <alias>  (171) 
PWZBRLGHNKCXCG-UHFFFAOYSA-N-P44-P44-P59-607684

>  <distance_score>  (171) 
1.241643

>  <ref_mols>  (171) 
7goy-a,7gp2-a

>  <smiles>  (171) 
Cc1ccc2[nH]c(-c3cccs3)c(CCC(=O)NCCn3cc(Cl)c(C)n3)c2c1

$$$$
GKLQKGRNTKLWEN-UHFFFAOYSA-N-P59-P44-P59-607684
     RDKit          3D

 30 33  0  0  0  0  0  0  0  0999 V2000
   -3.0964   -1.6749   32.2174 C   0  0  0  0  0  0  0  0  0  0  0  0
   -1.8215   -1.0653   31.7812 C   0  0  0  0  0  0  0  0  0  0  0  0
   -1.5268    0.1893   32.1446 N   0  0  0  0  0  0  0  0  0  0  0  0
   -0.2704    0.3893   31.6876 N   0  0  0  0  0  0  0  0  0  0  0  0
    0.4035    1.6219   32.0627 C   0  0  0  0  0  0  0  0  0  0  0  0
    1.9066    1.6955   31.8156 C   0  0  0  0  0  0  0  0  0  0  0  0
    2.2297    2.1535   30.4879 N   0  0  0  0  0  0  0  0  0  0  0  0
    2.1279    3.5677   29.8579 C   0  0  0  0  0  0  0  0  0  0  0  0
    1.6954    4.5597   30.2936 O   0  0  0  0  0  0  0  0  0  0  0  0
    2.7909    3.5035   28.4901 C   0  0  0  0  0  0  0  0  0  0  0  0
    1.8284    3.6889   27.3238 C   0  0  0  0  0  0  0  0  0  0  0  0
    0.6563    2.7452   27.1987 C   0  0  0  0  0  0  0  0  0  0  0  0
    0.5715    1.3609   27.3887 C   0  0  0  0  0  0  0  0  0  0  0  0
    1.6039    0.3092   27.5264 C   0  0  0  0  0  0  0  0  0  0  0  0
    2.9077    0.4999   27.0451 C   0  0  0  0  0  0  0  0  0  0  0  0
    3.8997   -0.4771   27.1906 C   0  0  0  0  0  0  0  0  0  0  0  0
    3.5964   -1.6919   27.7916 C   0  0  0  0  0  0  0  0  0  0  0  0
    2.2929   -1.9384   28.2036 C   0  0  0  0  0  0  0  0  0  0  0  0
    1.3066   -0.9540   28.0482 C   0  0  0  0  0  0  0  0  0  0  0  0
   -0.7808    1.0665   27.3451 N   0  0  0  0  0  0  0  0  0  0  0  0
   -1.4682    2.0958   26.7517 C   0  0  0  0  0  0  0  0  0  0  0  0
   -2.7739    2.1452   26.2686 C   0  0  0  0  0  0  0  0  0  0  0  0
   -3.1326    3.2371   25.4721 C   0  0  0  0  0  0  0  0  0  0  0  0
   -2.2436    4.2810   25.2565 C   0  0  0  0  0  0  0  0  0  0  0  0
   -2.6343    5.5340   24.1384 Cl  0  0  0  0  0  0  0  0  0  0  0  0
   -0.9983    4.2913   25.8812 C   0  0  0  0  0  0  0  0  0  0  0  0
   -0.5843    3.1493   26.6013 C   0  0  0  0  0  0  0  0  0  0  0  0
    0.2255   -0.7029   31.0460 C   0  0  0  0  0  0  0  0  0  0  0  0
   -0.7618   -1.6555   31.0665 C   0  0  0  0  0  0  0  0  0  0  0  0
   -0.6762   -3.2388   30.4781 Cl  0  0  0  0  0  0  0  0  0  0  0  0
  1  2  1  0
  2  3  2  0
  3  4  1  0
  4  5  1  0
  5  6  1  0
  6  7  1  0
  7  8  1  0
  8  9  2  0
  8 10  1  0
 10 11  1  0
 11 12  1  0
 12 13  2  0
 13 14  1  0
 14 15  2  0
 15 16  1  0
 16 17  2  0
 17 18  1  0
 18 19  2  0
 13 20  1  0
 20 21  1  0
 21 22  2  0
 22 23  1  0
 23 24  2  0
 24 25  1  0
 24 26  1  0
 26 27  2  0
  4 28  1  0
 28 29  2  0
 29 30  1  0
 29  2  1  0
 27 12  1  0
 19 14  1  0
 27 21  1  0
M  END
>  <name>  (172) 
GKLQKGRNTKLWEN-UHFFFAOYSA-N-P59-P44-P59-607684

>  <HIPPO Compound ID>  (172) 
98565

>  <energy_score>  (172) 
-3.53889

>  <HIPPO Pose ID>  (172) 
61915

>  <inspiration_score>  (172) 
None

>  <ref_pdb>  (172) 
7gp2-a

>  <inchikey>  (172) 
GKLQKGRNTKLWEN-UHFFFAOYSA-N

>  <alias>  (172) 
GKLQKGRNTKLWEN-UHFFFAOYSA-N-P59-P44-P59-607684

>  <distance_score>  (172) 
1.941849

>  <ref_mols>  (172) 
7goy-a,7gp2-a

>  <smiles>  (172) 
Cc1nn(CCNC(=O)CCc2c(-c3ccccc3)[nH]c3ccc(Cl)cc23)cc1Cl

$$$$
LEQQRFALQGQALY-UHFFFAOYSA-N-P44-P44-P59-607684
     RDKit          3D

 30 33  0  0  0  0  0  0  0  0999 V2000
   -2.1154   -1.7725   32.4667 C   0  0  0  0  0  0  0  0  0  0  0  0
   -1.1862   -1.9081   31.3215 C   0  0  0  0  0  0  0  0  0  0  0  0
   -0.6013   -3.0130   30.7421 C   0  0  0  0  0  0  0  0  0  0  0  0
   -0.6123   -4.6156   31.2878 Cl  0  0  0  0  0  0  0  0  0  0  0  0
    0.0667   -2.5363   29.6042 C   0  0  0  0  0  0  0  0  0  0  0  0
   -0.0086   -1.2130   29.5101 N   0  0  0  0  0  0  0  0  0  0  0  0
   -0.6373   -0.8520   30.6405 N   0  0  0  0  0  0  0  0  0  0  0  0
   -0.6957    0.5471   30.9805 C   0  0  0  0  0  0  0  0  0  0  0  0
    0.6444    1.1725   31.3579 C   0  0  0  0  0  0  0  0  0  0  0  0
    1.4217    1.4845   30.1926 N   0  0  0  0  0  0  0  0  0  0  0  0
    2.6603    0.7689   29.5848 C   0  0  0  0  0  0  0  0  0  0  0  0
    3.2824   -0.1373   29.9830 O   0  0  0  0  0  0  0  0  0  0  0  0
    2.9398    1.4598   28.2233 C   0  0  2  0  0  0  0  0  0  0  0  0
    1.9706    0.9932   27.1231 C   0  0  0  0  0  0  0  0  0  0  0  0
    0.5783    1.5793   27.1613 C   0  0  0  0  0  0  0  0  0  0  0  0
   -0.6068    0.8782   27.2862 C   0  0  0  0  0  0  0  0  0  0  0  0
   -1.6222    1.7722   27.4474 N   0  0  0  0  0  0  0  0  0  0  0  0
   -1.1215    3.0449   27.3671 C   0  0  0  0  0  0  0  0  0  0  0  0
   -1.7616    4.2668   27.5201 C   0  0  0  0  0  0  0  0  0  0  0  0
   -1.0224    5.4333   27.2930 C   0  0  0  0  0  0  0  0  0  0  0  0
    0.3081    5.3742   26.9104 C   0  0  0  0  0  0  0  0  0  0  0  0
    0.9373    4.1378   26.7881 C   0  0  0  0  0  0  0  0  0  0  0  0
    0.2248    2.9539   27.0520 C   0  0  0  0  0  0  0  0  0  0  0  0
    4.3431    1.2055   27.8838 N   0  0  0  0  0  0  0  0  0  0  0  0
    4.8401    0.0793   27.3104 C   0  0  0  0  0  0  0  0  0  0  0  0
    4.2579   -0.8900   26.8597 O   0  0  0  0  0  0  0  0  0  0  0  0
    6.3018    0.2084   27.3030 C   0  0  0  0  0  0  0  0  0  0  0  0
    6.6134    1.3527   27.9106 C   0  0  0  0  0  0  0  0  0  0  0  0
    5.3593    1.9878   28.3240 C   0  0  0  0  0  0  0  0  0  0  0  0
    5.3029    3.0285   28.9538 O   0  0  0  0  0  0  0  0  0  0  0  0
  1  2  1  0
  2  3  2  0
  3  4  1  0
  3  5  1  0
  5  6  2  0
  6  7  1  0
  7  8  1  0
  8  9  1  0
  9 10  1  0
 10 11  1  0
 11 12  2  0
 11 13  1  0
 13 14  1  6
 14 15  1  0
 15 16  2  0
 16 17  1  0
 17 18  1  0
 18 19  2  0
 19 20  1  0
 20 21  2  0
 21 22  1  0
 22 23  2  0
 13 24  1  0
 24 25  1  0
 25 26  2  0
 25 27  1  0
 27 28  2  0
 28 29  1  0
 29 30  2  0
  7  2  1  0
 23 15  1  0
 29 24  1  0
 23 18  1  0
M  END
>  <name>  (173) 
LEQQRFALQGQALY-UHFFFAOYSA-N-P44-P44-P59-607684

>  <HIPPO Compound ID>  (173) 
98566

>  <energy_score>  (173) 
-20.173991

>  <HIPPO Pose ID>  (173) 
61916

>  <inspiration_score>  (173) 
None

>  <ref_pdb>  (173) 
7gp2-a

>  <inchikey>  (173) 
LEQQRFALQGQALY-UHFFFAOYSA-N

>  <alias>  (173) 
LEQQRFALQGQALY-UHFFFAOYSA-N-P44-P44-P59-607684

>  <distance_score>  (173) 
1.975439

>  <ref_mols>  (173) 
7goy-a,7gp2-a

>  <smiles>  (173) 
Cc1c(Cl)cnn1CCNC(=O)C(Cc1c[nH]c2ccccc12)N1C(=O)C=CC1=O

$$$$
XPNOYDQRTXCIBF-UHFFFAOYSA-N-P59-P44-P59-607685
     RDKit          3D

 30 32  0  0  0  0  0  0  0  0999 V2000
   -2.3892   -1.3532   31.8459 C   0  0  0  0  0  0  0  0  0  0  0  0
   -1.2236   -0.8677   31.0635 C   0  0  0  0  0  0  0  0  0  0  0  0
   -0.5796    0.2520   31.4345 N   0  0  0  0  0  0  0  0  0  0  0  0
    0.4856    0.3154   30.5983 N   0  0  0  0  0  0  0  0  0  0  0  0
    1.6220    1.2051   30.8590 C   0  0  2  0  0  0  0  0  0  0  0  0
    1.8175    1.5024   32.3481 C   0  0  0  0  0  0  0  0  0  0  0  0
    1.4454    2.5044   30.0680 C   0  0  0  0  0  0  0  0  0  0  0  0
    0.8179    3.3986   30.4885 O   0  0  0  0  0  0  0  0  0  0  0  0
    2.1340    2.3164   28.6763 N   0  0  0  0  0  0  0  0  0  0  0  0
    2.1076    3.0944   27.5747 N   0  0  0  0  0  0  0  0  0  0  0  0
    2.6376    2.8271   26.1377 C   0  0  0  0  0  0  0  0  0  0  0  0
    3.2453    1.9251   25.7108 O   0  0  0  0  0  0  0  0  0  0  0  0
    2.1280    3.9582   25.2258 C   0  0  0  0  0  0  0  0  0  0  0  0
    0.7650    3.5961   24.5460 C   0  0  1  0  0  0  0  0  0  0  0  0
   -0.3314    3.5996   25.6112 C   0  0  0  0  0  0  0  0  0  0  0  0
   -0.6930    2.5530   26.4529 C   0  0  0  0  0  0  0  0  0  0  0  0
   -1.0459    3.1314   27.6534 N   0  0  0  0  0  0  0  0  0  0  0  0
   -0.8781    4.4916   27.5439 C   0  0  0  0  0  0  0  0  0  0  0  0
   -0.6729    5.4980   28.4843 C   0  0  0  0  0  0  0  0  0  0  0  0
   -0.7357    6.8302   28.0698 C   0  0  0  0  0  0  0  0  0  0  0  0
   -0.5429    8.2150   29.3446 Br  0  0  0  0  0  0  0  0  0  0  0  0
   -0.9396    7.1510   26.7390 C   0  0  0  0  0  0  0  0  0  0  0  0
   -0.9747    6.1306   25.7854 C   0  0  0  0  0  0  0  0  0  0  0  0
   -0.8669    4.7852   26.1899 C   0  0  0  0  0  0  0  0  0  0  0  0
    0.4719    4.4746   23.2927 C   0  0  0  0  0  0  0  0  0  0  0  0
    1.5604    4.3896   22.2120 C   0  0  0  0  0  0  0  0  0  0  0  0
   -0.8759    4.1110   22.6581 C   0  0  0  0  0  0  0  0  0  0  0  0
    0.4508   -0.6451   29.6273 C   0  0  0  0  0  0  0  0  0  0  0  0
   -0.5965   -1.4679   29.9499 C   0  0  0  0  0  0  0  0  0  0  0  0
   -0.9594   -2.9421   29.2212 Cl  0  0  0  0  0  0  0  0  0  0  0  0
  1  2  1  0
  2  3  2  0
  3  4  1  0
  4  5  1  0
  5  6  1  1
  5  7  1  0
  7  8  2  0
  7  9  1  0
  9 10  1  0
 10 11  1  0
 11 12  2  0
 11 13  1  0
 14 13  1  1
 14 15  1  0
 15 16  2  0
 16 17  1  0
 17 18  1  0
 18 19  2  0
 19 20  1  0
 20 21  1  0
 20 22  2  0
 22 23  1  0
 23 24  2  0
 14 25  1  0
 25 26  1  0
 25 27  1  0
  4 28  1  0
 28 29  2  0
 29 30  1  0
 29  2  1  0
 24 15  1  0
 24 18  1  0
M  END
>  <name>  (174) 
XPNOYDQRTXCIBF-UHFFFAOYSA-N-P59-P44-P59-607685

>  <HIPPO Compound ID>  (174) 
98649

>  <energy_score>  (174) 
-21.830814

>  <HIPPO Pose ID>  (174) 
62083

>  <inspiration_score>  (174) 
None

>  <ref_pdb>  (174) 
7gp2-a

>  <inchikey>  (174) 
XPNOYDQRTXCIBF-UHFFFAOYSA-N

>  <alias>  (174) 
XPNOYDQRTXCIBF-UHFFFAOYSA-N-P59-P44-P59-607685

>  <distance_score>  (174) 
1.708765

>  <ref_mols>  (174) 
7goy-a,7gp2-a

>  <smiles>  (174) 
Cc1nn(C(C)C(=O)NNC(=O)CC(c2c[nH]c3cc(Br)ccc23)C(C)C)cc1Cl

$$$$
WXVZQYVEEYOQIN-UHFFFAOYSA-N-P44-P44-P59-607685
     RDKit          3D

 30 32  0  0  0  0  0  0  0  0999 V2000
    2.9563   -2.1173   31.5232 C   0  0  0  0  0  0  0  0  0  0  0  0
    2.5552   -0.8702   32.3010 C   0  0  0  0  0  0  0  0  0  0  0  0
    1.8297    0.1803   31.4359 C   0  0  2  0  0  0  0  0  0  0  0  0
    1.5976    1.4711   32.2457 C   0  0  0  0  0  0  0  0  0  0  0  0
    1.2875    2.6141   31.4170 N   0  0  0  0  0  0  0  0  0  0  0  0
    2.2192    3.5801   30.6501 C   0  0  0  0  0  0  0  0  0  0  0  0
    3.3829    3.6504   30.6298 O   0  0  0  0  0  0  0  0  0  0  0  0
    1.3352    4.5715   29.8975 C   0  0  0  0  0  0  0  0  0  0  0  0
    1.2844    4.4386   28.3610 C   0  0  2  0  0  0  0  0  0  0  0  0
    0.0749    3.6757   27.8384 C   0  0  0  0  0  0  0  0  0  0  0  0
   -0.4648    2.4857   28.2804 C   0  0  0  0  0  0  0  0  0  0  0  0
   -1.5177    2.1478   27.4771 N   0  0  0  0  0  0  0  0  0  0  0  0
   -1.6854    3.1119   26.5159 C   0  0  0  0  0  0  0  0  0  0  0  0
   -2.5977    3.2002   25.4610 C   0  0  0  0  0  0  0  0  0  0  0  0
   -2.4963    4.3029   24.5999 C   0  0  0  0  0  0  0  0  0  0  0  0
   -3.5836    4.4422   23.0636 Br  0  0  0  0  0  0  0  0  0  0  0  0
   -1.5798    5.3175   24.8212 C   0  0  0  0  0  0  0  0  0  0  0  0
   -0.7102    5.2299   25.9006 C   0  0  0  0  0  0  0  0  0  0  0  0
   -0.7326    4.0974   26.7391 C   0  0  0  0  0  0  0  0  0  0  0  0
    2.6320    4.0481   27.6761 C   0  0  0  0  0  0  0  0  0  0  0  0
    2.9090    2.5436   27.6139 C   0  0  0  0  0  0  0  0  0  0  0  0
    2.7451    4.6166   26.2535 C   0  0  0  0  0  0  0  0  0  0  0  0
    0.5615   -0.3339   30.9221 N   0  0  0  0  0  0  0  0  0  0  0  0
   -0.4571   -0.5379   31.7970 N   0  0  0  0  0  0  0  0  0  0  0  0
   -1.4469   -1.0383   31.0427 C   0  0  0  0  0  0  0  0  0  0  0  0
   -2.6968   -1.4718   31.7080 C   0  0  0  0  0  0  0  0  0  0  0  0
   -1.0921   -1.0565   29.6746 C   0  0  0  0  0  0  0  0  0  0  0  0
   -2.0196   -1.4377   28.3275 Cl  0  0  0  0  0  0  0  0  0  0  0  0
    0.2184   -0.6819   29.6523 C   0  0  0  0  0  0  0  0  0  0  0  0
    1.2911   -0.5972   28.3382 Cl  0  0  0  0  0  0  0  0  0  0  0  0
  1  2  1  0
  3  2  1  1
  3  4  1  0
  4  5  1  0
  5  6  1  0
  6  7  2  0
  6  8  1  0
  9  8  1  1
  9 10  1  0
 10 11  2  0
 11 12  1  0
 12 13  1  0
 13 14  2  0
 14 15  1  0
 15 16  1  0
 15 17  2  0
 17 18  1  0
 18 19  2  0
  9 20  1  0
 20 21  1  0
 20 22  1  0
  3 23  1  0
 23 24  1  0
 24 25  2  0
 25 26  1  0
 25 27  1  0
 27 28  1  0
 27 29  2  0
 29 30  1  0
 19 10  1  0
 29 23  1  0
 19 13  1  0
M  END
>  <name>  (175) 
WXVZQYVEEYOQIN-UHFFFAOYSA-N-P44-P44-P59-607685

>  <HIPPO Compound ID>  (175) 
98651

>  <energy_score>  (175) 
-31.621525

>  <HIPPO Pose ID>  (175) 
62086

>  <inspiration_score>  (175) 
None

>  <ref_pdb>  (175) 
7gp2-a

>  <inchikey>  (175) 
WXVZQYVEEYOQIN-UHFFFAOYSA-N

>  <alias>  (175) 
WXVZQYVEEYOQIN-UHFFFAOYSA-N-P44-P44-P59-607685

>  <distance_score>  (175) 
1.726928

>  <ref_mols>  (175) 
7goy-a,7gp2-a

>  <smiles>  (175) 
CCC(CNC(=O)CC(c1c[nH]c2cc(Br)ccc12)C(C)C)n1nc(C)c(Cl)c1Cl

$$$$
UAJXBDVKUKYINS-UHFFFAOYSA-N-P44-P44-P59-607685
     RDKit          3D

 30 32  0  0  0  0  0  0  0  0999 V2000
   -2.0628   -1.0764   32.4679 C   0  0  0  0  0  0  0  0  0  0  0  0
   -1.0904   -0.6822   31.4166 C   0  0  0  0  0  0  0  0  0  0  0  0
   -0.2648    0.3618   31.5799 N   0  0  0  0  0  0  0  0  0  0  0  0
    0.4743    0.3826   30.4411 N   0  0  0  0  0  0  0  0  0  0  0  0
    1.6336    1.2665   30.3337 C   0  0  0  0  0  0  0  0  0  0  0  0
    1.2478    2.4926   29.5336 C   0  0  0  0  0  0  0  0  0  0  0  0
    0.4504    3.2412   29.9505 O   0  0  0  0  0  0  0  0  0  0  0  0
    1.9826    2.4609   28.1548 N   0  0  0  0  0  0  0  0  0  0  0  0
    1.8222    3.2347   27.0569 N   0  0  0  0  0  0  0  0  0  0  0  0
    2.2744    3.0075   25.5886 C   0  0  0  0  0  0  0  0  0  0  0  0
    2.9207    2.1557   25.1197 O   0  0  0  0  0  0  0  0  0  0  0  0
    1.6199    4.0924   24.7070 C   0  0  0  0  0  0  0  0  0  0  0  0
    0.1574    3.7038   24.2526 C   0  0  1  0  0  0  0  0  0  0  0  0
   -0.7634    3.7774   25.4623 C   0  0  0  0  0  0  0  0  0  0  0  0
   -1.1535    2.7489   26.3097 C   0  0  0  0  0  0  0  0  0  0  0  0
   -1.3715    3.3232   27.5434 N   0  0  0  0  0  0  0  0  0  0  0  0
   -1.0978    4.6698   27.4595 C   0  0  0  0  0  0  0  0  0  0  0  0
   -0.7847    5.6325   28.4167 C   0  0  0  0  0  0  0  0  0  0  0  0
   -0.7233    6.9779   28.0467 C   0  0  0  0  0  0  0  0  0  0  0  0
   -0.9158    7.3392   26.7265 C   0  0  0  0  0  0  0  0  0  0  0  0
   -0.8568    9.1626   26.2314 Br  0  0  0  0  0  0  0  0  0  0  0  0
   -1.0664    6.3594   25.7453 C   0  0  0  0  0  0  0  0  0  0  0  0
   -1.0946    4.9989   26.1146 C   0  0  0  0  0  0  0  0  0  0  0  0
   -0.3272    4.5386   23.0280 C   0  0  0  0  0  0  0  0  0  0  0  0
   -1.8201    4.3213   22.7380 C   0  0  0  0  0  0  0  0  0  0  0  0
    0.4597    4.2399   21.7456 C   0  0  0  0  0  0  0  0  0  0  0  0
    0.0567   -0.5440   29.5166 C   0  0  0  0  0  0  0  0  0  0  0  0
    0.5811   -0.6539   28.1358 C   0  0  0  0  0  0  0  0  0  0  0  0
   -0.8685   -1.3129   30.1796 C   0  0  0  0  0  0  0  0  0  0  0  0
   -1.5767   -2.7438   29.6617 Cl  0  0  0  0  0  0  0  0  0  0  0  0
  1  2  1  0
  2  3  2  0
  3  4  1  0
  4  5  1  0
  5  6  1  0
  6  7  2  0
  6  8  1  0
  8  9  1  0
  9 10  1  0
 10 11  2  0
 10 12  1  0
 13 12  1  1
 13 14  1  0
 14 15  2  0
 15 16  1  0
 16 17  1  0
 17 18  2  0
 18 19  1  0
 19 20  2  0
 20 21  1  0
 20 22  1  0
 22 23  2  0
 13 24  1  0
 24 25  1  0
 24 26  1  0
  4 27  1  0
 27 28  1  0
 27 29  2  0
 29 30  1  0
 29  2  1  0
 23 14  1  0
 23 17  1  0
M  END
>  <name>  (176) 
UAJXBDVKUKYINS-UHFFFAOYSA-N-P44-P44-P59-607685

>  <HIPPO Compound ID>  (176) 
98655

>  <energy_score>  (176) 
-4.72521

>  <HIPPO Pose ID>  (176) 
62094

>  <inspiration_score>  (176) 
None

>  <ref_pdb>  (176) 
7gp2-a

>  <inchikey>  (176) 
UAJXBDVKUKYINS-UHFFFAOYSA-N

>  <alias>  (176) 
UAJXBDVKUKYINS-UHFFFAOYSA-N-P44-P44-P59-607685

>  <distance_score>  (176) 
1.669127

>  <ref_mols>  (176) 
7goy-a,7gp2-a

>  <smiles>  (176) 
Cc1nn(CC(=O)NNC(=O)CC(c2c[nH]c3ccc(Br)cc23)C(C)C)c(C)c1Cl

$$$$
SPRWNJDPWAOTAB-UHFFFAOYSA-N-P59-P44-P59-607685
     RDKit          3D

 30 32  0  0  0  0  0  0  0  0999 V2000
   -2.5892   -1.2217   31.7092 C   0  0  0  0  0  0  0  0  0  0  0  0
   -1.3056   -1.1879   30.9697 C   0  0  0  0  0  0  0  0  0  0  0  0
   -0.1463   -1.1178   31.6445 N   0  0  0  0  0  0  0  0  0  0  0  0
    0.7981   -1.2336   30.6863 N   0  0  0  0  0  0  0  0  0  0  0  0
    2.2225   -1.1834   31.0440 C   0  0  1  0  0  0  0  0  0  0  0  0
    2.7819   -2.5910   31.2129 C   0  0  0  0  0  0  0  0  0  0  0  0
    2.9642   -0.3914   29.9554 C   0  0  0  0  0  0  0  0  0  0  0  0
    3.7576   -0.8535   29.2313 O   0  0  0  0  0  0  0  0  0  0  0  0
    2.3483    1.0401   29.9978 N   0  0  0  0  0  0  0  0  0  0  0  0
    2.5021    2.0745   29.1674 N   0  0  0  0  0  0  0  0  0  0  0  0
    2.5951    3.5953   29.4598 C   0  0  0  0  0  0  0  0  0  0  0  0
    2.6291    4.1693   30.4755 O   0  0  0  0  0  0  0  0  0  0  0  0
    2.5278    4.2989   28.1059 C   0  0  0  0  0  0  0  0  0  0  0  0
    1.1310    4.9095   27.8194 C   0  0  1  0  0  0  0  0  0  0  0  0
    0.0349    3.8620   27.5654 C   0  0  0  0  0  0  0  0  0  0  0  0
   -0.3580    2.8046   28.3684 C   0  0  0  0  0  0  0  0  0  0  0  0
   -1.4199    2.1733   27.7908 N   0  0  0  0  0  0  0  0  0  0  0  0
   -1.8054    2.8634   26.6758 C   0  0  0  0  0  0  0  0  0  0  0  0
   -2.9134    2.6781   25.8548 C   0  0  0  0  0  0  0  0  0  0  0  0
   -3.0842    3.5553   24.7774 C   0  0  0  0  0  0  0  0  0  0  0  0
   -2.1732    4.5706   24.5322 C   0  0  0  0  0  0  0  0  0  0  0  0
   -2.4362    5.7336   23.0648 Br  0  0  0  0  0  0  0  0  0  0  0  0
   -1.0771    4.7546   25.3708 C   0  0  0  0  0  0  0  0  0  0  0  0
   -0.8919    3.8917   26.4720 C   0  0  0  0  0  0  0  0  0  0  0  0
    0.6798    6.0011   28.8460 C   0  0  0  0  0  0  0  0  0  0  0  0
   -0.5815    6.7449   28.3781 C   0  0  0  0  0  0  0  0  0  0  0  0
    1.7650    7.0567   29.1041 C   0  0  0  0  0  0  0  0  0  0  0  0
    0.2741   -1.3026   29.4283 C   0  0  0  0  0  0  0  0  0  0  0  0
   -1.0814   -1.2188   29.5749 C   0  0  0  0  0  0  0  0  0  0  0  0
   -2.1839   -1.1532   28.3088 Cl  0  0  0  0  0  0  0  0  0  0  0  0
  1  2  1  0
  2  3  2  0
  3  4  1  0
  4  5  1  0
  5  6  1  6
  5  7  1  0
  7  8  2  0
  7  9  1  0
  9 10  1  0
 10 11  1  0
 11 12  2  0
 11 13  1  0
 14 13  1  1
 14 15  1  0
 15 16  2  0
 16 17  1  0
 17 18  1  0
 18 19  2  0
 19 20  1  0
 20 21  2  0
 21 22  1  0
 21 23  1  0
 23 24  2  0
 14 25  1  0
 25 26  1  0
 25 27  1  0
  4 28  1  0
 28 29  2  0
 29 30  1  0
 29  2  1  0
 24 15  1  0
 24 18  1  0
M  END
>  <name>  (177) 
SPRWNJDPWAOTAB-UHFFFAOYSA-N-P59-P44-P59-607685

>  <HIPPO Compound ID>  (177) 
98661

>  <energy_score>  (177) 
-12.424009

>  <HIPPO Pose ID>  (177) 
62107

>  <inspiration_score>  (177) 
None

>  <ref_pdb>  (177) 
7gp2-a

>  <inchikey>  (177) 
SPRWNJDPWAOTAB-UHFFFAOYSA-N

>  <alias>  (177) 
SPRWNJDPWAOTAB-UHFFFAOYSA-N-P59-P44-P59-607685

>  <distance_score>  (177) 
1.940182

>  <ref_mols>  (177) 
7goy-a,7gp2-a

>  <smiles>  (177) 
Cc1nn(C(C)C(=O)NNC(=O)CC(c2c[nH]c3ccc(Br)cc23)C(C)C)cc1Cl

$$$$
PMUFRTBVZKQWRD-UHFFFAOYSA-N-P59-P44-P59-607685
     RDKit          3D

 30 32  0  0  0  0  0  0  0  0999 V2000
    0.8817   -0.2926   28.7311 C   0  0  0  0  0  0  0  0  0  0  0  0
    0.1667   -0.5682   30.0057 C   0  0  0  0  0  0  0  0  0  0  0  0
   -1.0173   -1.2365   30.2218 C   0  0  0  0  0  0  0  0  0  0  0  0
   -1.9650   -1.9362   29.0299 Cl  0  0  0  0  0  0  0  0  0  0  0  0
   -1.2611   -1.1999   31.6104 C   0  0  0  0  0  0  0  0  0  0  0  0
   -2.4284   -1.7559   32.3700 C   0  0  0  0  0  0  0  0  0  0  0  0
   -3.4286   -0.8397   32.5018 F   0  0  0  0  0  0  0  0  0  0  0  0
   -2.9775   -2.8552   31.7786 F   0  0  0  0  0  0  0  0  0  0  0  0
   -2.0895   -2.1333   33.6311 F   0  0  0  0  0  0  0  0  0  0  0  0
   -0.2591   -0.5529   32.2351 N   0  0  0  0  0  0  0  0  0  0  0  0
    0.5658   -0.1503   31.2511 N   0  0  0  0  0  0  0  0  0  0  0  0
    1.6858    0.7115   31.6071 C   0  0  0  0  0  0  0  0  0  0  0  0
    1.2562    2.1318   31.3079 C   0  0  0  0  0  0  0  0  0  0  0  0
    0.3664    2.6391   31.8733 O   0  0  0  0  0  0  0  0  0  0  0  0
    2.1218    2.6472   30.1171 N   0  0  0  0  0  0  0  0  0  0  0  0
    2.0118    3.7607   29.3812 N   0  0  0  0  0  0  0  0  0  0  0  0
    1.4268    5.1549   29.7423 C   0  0  0  0  0  0  0  0  0  0  0  0
    1.0236    5.5665   30.7589 O   0  0  0  0  0  0  0  0  0  0  0  0
    1.3336    5.9833   28.4607 C   0  0  0  0  0  0  0  0  0  0  0  0
    1.0336    5.2936   27.1282 C   0  0  0  0  0  0  0  0  0  0  0  0
   -0.1742    4.3978   27.0010 C   0  0  0  0  0  0  0  0  0  0  0  0
   -0.5810    3.3401   27.7958 C   0  0  0  0  0  0  0  0  0  0  0  0
   -1.6325    2.7074   27.1885 N   0  0  0  0  0  0  0  0  0  0  0  0
   -2.2348    1.4714   27.6197 C   0  0  0  0  0  0  0  0  0  0  0  0
   -2.0129    3.3948   26.0648 C   0  0  0  0  0  0  0  0  0  0  0  0
   -3.0725    3.1915   25.1734 C   0  0  0  0  0  0  0  0  0  0  0  0
   -3.1879    4.0372   24.0675 C   0  0  0  0  0  0  0  0  0  0  0  0
   -2.2889    5.0731   23.8703 C   0  0  0  0  0  0  0  0  0  0  0  0
   -1.2571    5.2873   24.7874 C   0  0  0  0  0  0  0  0  0  0  0  0
   -1.1079    4.4421   25.9080 C   0  0  0  0  0  0  0  0  0  0  0  0
  1  2  1  0
  2  3  2  0
  3  4  1  0
  3  5  1  0
  5  6  1  0
  6  7  1  0
  6  8  1  0
  6  9  1  0
  5 10  2  0
 10 11  1  0
 11 12  1  0
 12 13  1  0
 13 14  2  0
 13 15  1  0
 15 16  1  0
 16 17  1  0
 17 18  2  0
 17 19  1  0
 19 20  1  0
 20 21  1  0
 21 22  2  0
 22 23  1  0
 23 24  1  0
 23 25  1  0
 25 26  2  0
 26 27  1  0
 27 28  2  0
 28 29  1  0
 29 30  2  0
 11  2  1  0
 30 21  1  0
 30 25  1  0
M  END
>  <name>  (178) 
PMUFRTBVZKQWRD-UHFFFAOYSA-N-P59-P44-P59-607685

>  <HIPPO Compound ID>  (178) 
98663

>  <energy_score>  (178) 
-3.56391

>  <HIPPO Pose ID>  (178) 
62111

>  <inspiration_score>  (178) 
None

>  <ref_pdb>  (178) 
7gp2-a

>  <inchikey>  (178) 
PMUFRTBVZKQWRD-UHFFFAOYSA-N

>  <alias>  (178) 
PMUFRTBVZKQWRD-UHFFFAOYSA-N-P59-P44-P59-607685

>  <distance_score>  (178) 
1.750306

>  <ref_mols>  (178) 
7goy-a,7gp2-a

>  <smiles>  (178) 
Cc1c(Cl)c(C(F)(F)F)nn1CC(=O)NNC(=O)CCc1cn(C)c2ccccc12

$$$$
QCIOAOZQBNATKH-UHFFFAOYSA-N-P59-P44-P59-607685
     RDKit          3D

 31 33  0  0  0  0  0  0  0  0999 V2000
    0.2538   -1.1294   28.1370 C   0  0  0  0  0  0  0  0  0  0  0  0
    0.0162   -0.8319   29.5678 C   0  0  0  0  0  0  0  0  0  0  0  0
    0.8190   -0.0104   30.2426 N   0  0  0  0  0  0  0  0  0  0  0  0
    0.3016    0.0533   31.4888 N   0  0  0  0  0  0  0  0  0  0  0  0
    1.1124    0.7776   32.4792 C   0  0  1  0  0  0  0  0  0  0  0  0
    0.5709    2.1898   32.7502 C   0  0  0  0  0  0  0  0  0  0  0  0
    0.6647    3.1051   31.6295 N   0  0  0  0  0  0  0  0  0  0  0  0
    1.9037    3.6997   30.9193 C   0  0  0  0  0  0  0  0  0  0  0  0
    3.0382    3.6059   31.1740 O   0  0  0  0  0  0  0  0  0  0  0  0
    1.4016    4.5990   29.7872 C   0  0  0  0  0  0  0  0  0  0  0  0
    1.4322    4.1086   28.3284 C   0  0  2  0  0  0  0  0  0  0  0  0
    0.1358    3.4782   27.8320 C   0  0  0  0  0  0  0  0  0  0  0  0
   -0.5815    2.4327   28.3686 C   0  0  0  0  0  0  0  0  0  0  0  0
   -1.6894    2.2067   27.6042 N   0  0  0  0  0  0  0  0  0  0  0  0
   -1.7065    3.0872   26.5535 C   0  0  0  0  0  0  0  0  0  0  0  0
   -2.6297    3.2451   25.5161 C   0  0  0  0  0  0  0  0  0  0  0  0
   -2.3681    4.2341   24.5580 C   0  0  0  0  0  0  0  0  0  0  0  0
   -3.5356    4.4910   23.0959 Br  0  0  0  0  0  0  0  0  0  0  0  0
   -1.2497    5.0499   24.6404 C   0  0  0  0  0  0  0  0  0  0  0  0
   -0.3562    4.8903   25.6952 C   0  0  0  0  0  0  0  0  0  0  0  0
   -0.5786    3.8919   26.6645 C   0  0  0  0  0  0  0  0  0  0  0  0
    2.7028    3.3960   27.7863 C   0  0  0  0  0  0  0  0  0  0  0  0
    3.9741    4.2189   28.0185 C   0  0  0  0  0  0  0  0  0  0  0  0
    2.9028    1.9591   28.2603 C   0  0  0  0  0  0  0  0  0  0  0  0
    1.4367   -0.0776   33.7462 C   0  0  0  0  0  0  0  0  0  0  0  0
    0.7114    0.3488   35.0270 C   0  0  0  0  0  0  0  0  0  0  0  0
    2.9489   -0.0612   34.0194 C   0  0  0  0  0  0  0  0  0  0  0  0
   -0.8705   -0.6610   31.6052 C   0  0  0  0  0  0  0  0  0  0  0  0
   -1.7441   -0.7576   32.7973 C   0  0  0  0  0  0  0  0  0  0  0  0
   -0.9987   -1.3122   30.3993 C   0  0  0  0  0  0  0  0  0  0  0  0
   -2.1211   -2.4788   29.9917 Cl  0  0  0  0  0  0  0  0  0  0  0  0
  1  2  1  0
  2  3  2  0
  3  4  1  0
  4  5  1  0
  5  6  1  1
  6  7  1  0
  7  8  1  0
  8  9  2  0
  8 10  1  0
 11 10  1  1
 11 12  1  0
 12 13  2  0
 13 14  1  0
 14 15  1  0
 15 16  2  0
 16 17  1  0
 17 18  1  0
 17 19  2  0
 19 20  1  0
 20 21  2  0
 11 22  1  0
 22 23  1  0
 22 24  1  0
  5 25  1  0
 25 26  1  0
 25 27  1  0
  4 28  1  0
 28 29  1  0
 28 30  2  0
 30 31  1  0
 30  2  1  0
 21 12  1  0
 21 15  1  0
M  END
>  <name>  (179) 
QCIOAOZQBNATKH-UHFFFAOYSA-N-P59-P44-P59-607685

>  <HIPPO Compound ID>  (179) 
98702

>  <energy_score>  (179) 
-50.224849

>  <HIPPO Pose ID>  (179) 
62189

>  <inspiration_score>  (179) 
None

>  <ref_pdb>  (179) 
7gp2-a

>  <inchikey>  (179) 
QCIOAOZQBNATKH-UHFFFAOYSA-N

>  <alias>  (179) 
QCIOAOZQBNATKH-UHFFFAOYSA-N-P59-P44-P59-607685

>  <distance_score>  (179) 
1.790606

>  <ref_mols>  (179) 
7goy-a,7gp2-a

>  <smiles>  (179) 
Cc1nn(C(CNC(=O)CC(c2c[nH]c3cc(Br)ccc23)C(C)C)C(C)C)c(C)c1Cl

$$$$
WJGPCXWYOQJUNG-UHFFFAOYSA-N-P44-P44-P59-607685
     RDKit          3D

 31 34  0  0  0  0  0  0  0  0999 V2000
   -2.2790    5.4742   24.7300 C   0  0  0  0  0  0  0  0  0  0  0  0
   -1.8907    4.2899   25.5675 C   0  0  0  0  0  0  0  0  0  0  0  0
   -2.6855    3.1419   25.5955 C   0  0  0  0  0  0  0  0  0  0  0  0
   -2.2561    1.9657   26.2158 C   0  0  0  0  0  0  0  0  0  0  0  0
   -0.9691    1.9677   26.7540 C   0  0  0  0  0  0  0  0  0  0  0  0
   -0.1983    0.9286   27.2089 N   0  0  0  0  0  0  0  0  0  0  0  0
    1.0942    1.3591   27.4519 C   0  0  0  0  0  0  0  0  0  0  0  0
    2.2194    0.4151   27.5264 C   0  0  0  0  0  0  0  0  0  0  0  0
    3.3642    0.6415   26.7448 C   0  0  0  0  0  0  0  0  0  0  0  0
    4.4395   -0.2514   26.7611 C   0  0  0  0  0  0  0  0  0  0  0  0
    4.3761   -1.3873   27.5605 C   0  0  0  0  0  0  0  0  0  0  0  0
    5.8188   -2.6061   27.5825 Br  0  0  0  0  0  0  0  0  0  0  0  0
    3.2463   -1.6394   28.3336 C   0  0  0  0  0  0  0  0  0  0  0  0
    2.1708   -0.7452   28.3066 C   0  0  0  0  0  0  0  0  0  0  0  0
    1.0575    2.7527   27.4520 C   0  0  0  0  0  0  0  0  0  0  0  0
    2.1511    3.7336   27.7847 C   0  0  0  0  0  0  0  0  0  0  0  0
    3.0681    3.3689   28.9486 C   0  0  0  0  0  0  0  0  0  0  0  0
    2.3753    3.4337   30.3082 C   0  0  0  0  0  0  0  0  0  0  0  0
    1.9841    4.4400   30.7517 O   0  0  0  0  0  0  0  0  0  0  0  0
    2.4194    2.0112   30.9284 N   0  0  0  0  0  0  0  0  0  0  0  0
    1.9029    1.5190   32.1873 C   0  0  0  0  0  0  0  0  0  0  0  0
    0.4018    1.7294   32.3682 C   0  0  0  0  0  0  0  0  0  0  0  0
   -0.3965    0.6702   31.7741 N   0  0  0  0  0  0  0  0  0  0  0  0
   -0.4913    0.3657   30.4549 C   0  0  0  0  0  0  0  0  0  0  0  0
   -1.2957   -0.7368   30.3607 C   0  0  0  0  0  0  0  0  0  0  0  0
   -1.6478   -1.6185   28.9668 Cl  0  0  0  0  0  0  0  0  0  0  0  0
   -1.7476   -0.9603   31.6801 C   0  0  0  0  0  0  0  0  0  0  0  0
   -2.6900   -1.9810   32.1898 C   0  0  0  0  0  0  0  0  0  0  0  0
   -1.2039   -0.0845   32.5410 N   0  0  0  0  0  0  0  0  0  0  0  0
   -0.1823    3.1113   26.8287 C   0  0  0  0  0  0  0  0  0  0  0  0
   -0.6666    4.3012   26.2506 C   0  0  0  0  0  0  0  0  0  0  0  0
  1  2  1  0
  2  3  2  0
  3  4  1  0
  4  5  2  0
  5  6  1  0
  6  7  1  0
  7  8  1  0
  8  9  2  0
  9 10  1  0
 10 11  2  0
 11 12  1  0
 11 13  1  0
 13 14  2  0
  7 15  2  0
 15 16  1  0
 16 17  1  0
 17 18  1  0
 18 19  2  0
 18 20  1  0
 20 21  1  0
 21 22  1  0
 22 23  1  0
 23 24  1  0
 24 25  2  0
 25 26  1  0
 25 27  1  0
 27 28  1  0
 27 29  2  0
 15 30  1  0
 30 31  2  0
 31  2  1  0
 30  5  1  0
 14  8  1  0
 29 23  1  0
M  END
>  <name>  (180) 
WJGPCXWYOQJUNG-UHFFFAOYSA-N-P44-P44-P59-607685

>  <HIPPO Compound ID>  (180) 
98705

>  <energy_score>  (180) 
-8.171213

>  <HIPPO Pose ID>  (180) 
62194

>  <inspiration_score>  (180) 
None

>  <ref_pdb>  (180) 
7gp2-a

>  <inchikey>  (180) 
WJGPCXWYOQJUNG-UHFFFAOYSA-N

>  <alias>  (180) 
WJGPCXWYOQJUNG-UHFFFAOYSA-N-P44-P44-P59-607685

>  <distance_score>  (180) 
1.43304

>  <ref_mols>  (180) 
7goy-a,7gp2-a

>  <smiles>  (180) 
Cc1ccc2[nH]c(-c3ccc(Br)cc3)c(CCC(=O)NCCn3cc(Cl)c(C)n3)c2c1

$$$$
SJCOJKUKBDNLFE-UHFFFAOYSA-N-P59-P44-P59-607685
     RDKit          3D

 31 34  0  0  0  0  0  0  0  0999 V2000
   -2.1343    5.6274   24.8595 C   0  0  0  0  0  0  0  0  0  0  0  0
   -1.7410    4.4652   25.7273 C   0  0  0  0  0  0  0  0  0  0  0  0
   -2.3496    3.2197   25.5524 C   0  0  0  0  0  0  0  0  0  0  0  0
   -1.8608    2.0749   26.1833 C   0  0  0  0  0  0  0  0  0  0  0  0
   -0.6942    2.2197   26.9375 C   0  0  0  0  0  0  0  0  0  0  0  0
    0.1584    1.2744   27.4435 N   0  0  0  0  0  0  0  0  0  0  0  0
    1.2773    1.8569   28.0049 C   0  0  0  0  0  0  0  0  0  0  0  0
    2.5051    1.0936   28.3045 C   0  0  0  0  0  0  0  0  0  0  0  0
    3.2469    1.2759   29.4765 C   0  0  0  0  0  0  0  0  0  0  0  0
    4.4205    0.5512   29.7210 C   0  0  0  0  0  0  0  0  0  0  0  0
    4.8758   -0.3642   28.7803 C   0  0  0  0  0  0  0  0  0  0  0  0
    6.4557   -1.3467   29.1066 Br  0  0  0  0  0  0  0  0  0  0  0  0
    4.1743   -0.5511   27.5964 C   0  0  0  0  0  0  0  0  0  0  0  0
    3.0020    0.1773   27.3654 C   0  0  0  0  0  0  0  0  0  0  0  0
    0.9872    3.2125   28.1046 C   0  0  0  0  0  0  0  0  0  0  0  0
    1.7734    4.2538   28.8384 C   0  0  0  0  0  0  0  0  0  0  0  0
    1.1086    4.6369   30.1574 C   0  0  0  0  0  0  0  0  0  0  0  0
    1.3818    3.7261   31.3643 C   0  0  0  0  0  0  0  0  0  0  0  0
    2.0975    4.0711   32.2217 O   0  0  0  0  0  0  0  0  0  0  0  0
    0.5008    2.4513   31.2399 N   0  0  0  0  0  0  0  0  0  0  0  0
    0.2479    1.3851   32.1906 C   0  0  0  0  0  0  0  0  0  0  0  0
    0.7645   -0.0145   31.8753 C   0  0  0  0  0  0  0  0  0  0  0  0
    0.1543   -0.7159   30.7738 N   0  0  0  0  0  0  0  0  0  0  0  0
    0.9796   -1.3005   29.8803 N   0  0  0  0  0  0  0  0  0  0  0  0
    0.1780   -1.5976   28.8663 C   0  0  0  0  0  0  0  0  0  0  0  0
   -1.1475   -1.2808   29.1579 C   0  0  0  0  0  0  0  0  0  0  0  0
   -2.3659   -1.2805   28.0148 Cl  0  0  0  0  0  0  0  0  0  0  0  0
   -1.1679   -0.9804   30.5037 C   0  0  0  0  0  0  0  0  0  0  0  0
   -2.2887   -0.8980   31.4654 C   0  0  0  0  0  0  0  0  0  0  0  0
   -0.1285    3.4531   27.2362 C   0  0  0  0  0  0  0  0  0  0  0  0
   -0.6828    4.6033   26.6413 C   0  0  0  0  0  0  0  0  0  0  0  0
  1  2  1  0
  2  3  2  0
  3  4  1  0
  4  5  2  0
  5  6  1  0
  6  7  1  0
  7  8  1  0
  8  9  2  0
  9 10  1  0
 10 11  2  0
 11 12  1  0
 11 13  1  0
 13 14  2  0
  7 15  2  0
 15 16  1  0
 16 17  1  0
 17 18  1  0
 18 19  2  0
 18 20  1  0
 20 21  1  0
 21 22  1  0
 22 23  1  0
 23 24  1  0
 24 25  2  0
 25 26  1  0
 26 27  1  0
 26 28  2  0
 28 29  1  0
 15 30  1  0
 30 31  2  0
 31  2  1  0
 30  5  1  0
 14  8  1  0
 28 23  1  0
M  END
>  <name>  (181) 
SJCOJKUKBDNLFE-UHFFFAOYSA-N-P59-P44-P59-607685

>  <HIPPO Compound ID>  (181) 
98707

>  <energy_score>  (181) 
-1.780608

>  <HIPPO Pose ID>  (181) 
62199

>  <inspiration_score>  (181) 
None

>  <ref_pdb>  (181) 
7gp2-a

>  <inchikey>  (181) 
SJCOJKUKBDNLFE-UHFFFAOYSA-N

>  <alias>  (181) 
SJCOJKUKBDNLFE-UHFFFAOYSA-N-P59-P44-P59-607685

>  <distance_score>  (181) 
1.657555

>  <ref_mols>  (181) 
7goy-a,7gp2-a

>  <smiles>  (181) 
Cc1ccc2[nH]c(-c3ccc(Br)cc3)c(CCC(=O)NCCn3ncc(Cl)c3C)c2c1

$$$$
HWNFEAHHRIEVFS-UHFFFAOYSA-N-P59-P44-P59-607685
     RDKit          3D

 31 34  0  0  0  0  0  0  0  0999 V2000
   -5.1964    1.7765   36.0735 C   0  0  0  0  0  0  0  0  0  0  0  0
   -6.2374    0.7174   36.1140 C   0  0  0  0  0  0  0  0  0  0  0  0
   -7.5305    0.7714   36.5890 C   0  0  0  0  0  0  0  0  0  0  0  0
   -8.3347    2.1125   37.2489 Cl  0  0  0  0  0  0  0  0  0  0  0  0
   -8.0429   -0.5387   36.4725 C   0  0  0  0  0  0  0  0  0  0  0  0
   -9.3757   -1.0142   36.9622 C   0  0  0  0  0  0  0  0  0  0  0  0
  -10.4156   -0.4406   36.3033 F   0  0  0  0  0  0  0  0  0  0  0  0
   -9.5240   -2.3654   36.8345 F   0  0  0  0  0  0  0  0  0  0  0  0
   -9.5551   -0.7468   38.2843 F   0  0  0  0  0  0  0  0  0  0  0  0
   -7.1361   -1.3590   35.9003 N   0  0  0  0  0  0  0  0  0  0  0  0
   -6.0757   -0.5608   35.6305 N   0  0  0  0  0  0  0  0  0  0  0  0
   -4.8604   -1.1965   35.1229 C   0  0  0  0  0  0  0  0  0  0  0  0
   -4.2557   -0.5389   33.8881 C   0  0  0  0  0  0  0  0  0  0  0  0
   -4.6294    0.4735   33.4361 O   0  0  0  0  0  0  0  0  0  0  0  0
   -3.0423   -1.4380   33.4888 N   0  0  0  0  0  0  0  0  0  0  0  0
   -2.1689   -1.3255   32.4679 N   0  0  0  0  0  0  0  0  0  0  0  0
   -1.7919   -2.3336   31.3479 C   0  0  0  0  0  0  0  0  0  0  0  0
   -2.1233   -3.4414   31.1846 O   0  0  0  0  0  0  0  0  0  0  0  0
   -0.8982   -1.5478   30.3452 C   0  0  1  0  0  0  0  0  0  0  0  0
   -1.7831   -0.7886   29.3219 C   0  0  0  0  0  0  0  0  0  0  0  0
   -1.1031    0.4303   28.7992 C   0  0  0  0  0  0  0  0  0  0  0  0
   -0.0208    0.9425   29.4715 C   0  0  0  0  0  0  0  0  0  0  0  0
    0.3438    2.1156   28.8803 N   0  0  0  0  0  0  0  0  0  0  0  0
   -0.5483    2.4373   27.8887 C   0  0  0  0  0  0  0  0  0  0  0  0
   -0.6452    3.6049   27.1217 C   0  0  0  0  0  0  0  0  0  0  0  0
   -1.6830    3.6890   26.1934 C   0  0  0  0  0  0  0  0  0  0  0  0
   -2.5733    2.6374   26.0274 C   0  0  0  0  0  0  0  0  0  0  0  0
   -2.4516    1.4713   26.7992 C   0  0  0  0  0  0  0  0  0  0  0  0
   -1.4402    1.3668   27.7721 C   0  0  0  0  0  0  0  0  0  0  0  0
    0.4903    0.3890   30.6779 C   0  0  0  0  0  0  0  0  0  0  0  0
    0.0319   -0.7068   31.1737 N   0  0  0  0  0  0  0  0  0  0  0  0
  1  2  1  0
  2  3  2  0
  3  4  1  0
  3  5  1  0
  5  6  1  0
  6  7  1  0
  6  8  1  0
  6  9  1  0
  5 10  2  0
 10 11  1  0
 11 12  1  0
 12 13  1  0
 13 14  2  0
 13 15  1  0
 15 16  1  0
 16 17  1  0
 17 18  2  0
 19 17  1  1
 19 20  1  0
 20 21  1  0
 21 22  2  0
 22 23  1  0
 23 24  1  0
 24 25  2  0
 25 26  1  0
 26 27  2  0
 27 28  1  0
 28 29  2  0
 22 30  1  0
 30 31  2  0
 11  2  1  0
 31 19  1  0
 29 21  1  0
 29 24  1  0
M  END
>  <name>  (182) 
HWNFEAHHRIEVFS-UHFFFAOYSA-N-P59-P44-P59-607685

>  <HIPPO Compound ID>  (182) 
98741

>  <energy_score>  (182) 
-0.642818

>  <HIPPO Pose ID>  (182) 
62267

>  <inspiration_score>  (182) 
None

>  <ref_pdb>  (182) 
7gp2-a

>  <inchikey>  (182) 
HWNFEAHHRIEVFS-UHFFFAOYSA-N

>  <alias>  (182) 
HWNFEAHHRIEVFS-UHFFFAOYSA-N-P59-P44-P59-607685

>  <distance_score>  (182) 
1.183639

>  <ref_mols>  (182) 
7goy-a,7gp2-a

>  <smiles>  (182) 
Cc1c(Cl)c(C(F)(F)F)nn1CC(=O)NNC(=O)C1Cc2c([nH]c3ccccc23)C=N1

$$$$
WEZDUCRJKPYBPH-UHFFFAOYSA-N-P44-P44-P59-607685
     RDKit          3D

 31 34  0  0  0  0  0  0  0  0999 V2000
   -2.9170    5.0514   24.2214 C   0  0  0  0  0  0  0  0  0  0  0  0
   -2.2910    4.0863   25.1846 C   0  0  0  0  0  0  0  0  0  0  0  0
   -3.0028    2.9900   25.6729 C   0  0  0  0  0  0  0  0  0  0  0  0
   -2.4007    2.0152   26.4707 C   0  0  0  0  0  0  0  0  0  0  0  0
   -1.0440    2.1702   26.7480 C   0  0  0  0  0  0  0  0  0  0  0  0
   -0.1743    1.3371   27.3984 N   0  0  0  0  0  0  0  0  0  0  0  0
    1.1239    1.8012   27.2916 C   0  0  0  0  0  0  0  0  0  0  0  0
    2.2414    0.9476   27.6464 C   0  0  0  0  0  0  0  0  0  0  0  0
    2.2166   -0.4336   27.7678 C   0  0  0  0  0  0  0  0  0  0  0  0
    3.4726   -0.9926   28.1433 C   0  0  0  0  0  0  0  0  0  0  0  0
    4.4374   -0.0249   28.2821 C   0  0  0  0  0  0  0  0  0  0  0  0
    3.8270    1.5304   27.9472 S   0  0  0  0  0  0  0  0  0  0  0  0
    1.0468    3.0930   26.7644 C   0  0  0  0  0  0  0  0  0  0  0  0
    2.1428    4.0988   26.4984 C   0  0  0  0  0  0  0  0  0  0  0  0
    2.5637    5.0138   27.6599 C   0  0  0  0  0  0  0  0  0  0  0  0
    1.6117    5.0089   28.8466 C   0  0  0  0  0  0  0  0  0  0  0  0
    0.7770    5.8073   29.0133 O   0  0  0  0  0  0  0  0  0  0  0  0
    1.9421    3.7166   29.6436 N   0  0  0  0  0  0  0  0  0  0  0  0
    1.3036    3.1418   30.6680 N   0  0  0  0  0  0  0  0  0  0  0  0
    1.7330    1.9652   31.5950 C   0  0  0  0  0  0  0  0  0  0  0  0
    2.7409    1.3738   31.6514 O   0  0  0  0  0  0  0  0  0  0  0  0
    0.5326    1.5765   32.4279 C   0  0  0  0  0  0  0  0  0  0  0  0
   -0.2766    0.5448   31.7857 N   0  0  0  0  0  0  0  0  0  0  0  0
   -0.0422   -0.1500   30.6351 C   0  0  0  0  0  0  0  0  0  0  0  0
   -1.0242   -1.1023   30.5442 C   0  0  0  0  0  0  0  0  0  0  0  0
   -1.1659   -2.3011   29.3643 Cl  0  0  0  0  0  0  0  0  0  0  0  0
   -1.8298   -0.9024   31.6858 C   0  0  0  0  0  0  0  0  0  0  0  0
   -2.9804   -1.6950   32.1764 C   0  0  0  0  0  0  0  0  0  0  0  0
   -1.4077    0.1485   32.4058 N   0  0  0  0  0  0  0  0  0  0  0  0
   -0.3087    3.2730   26.3292 C   0  0  0  0  0  0  0  0  0  0  0  0
   -0.9532    4.2593   25.5564 C   0  0  0  0  0  0  0  0  0  0  0  0
  1  2  1  0
  2  3  2  0
  3  4  1  0
  4  5  2  0
  5  6  1  0
  6  7  1  0
  7  8  1  0
  8  9  2  0
  9 10  1  0
 10 11  2  0
 11 12  1  0
  7 13  2  0
 13 14  1  0
 14 15  1  0
 15 16  1  0
 16 17  2  0
 16 18  1  0
 18 19  1  0
 19 20  1  0
 20 21  2  0
 20 22  1  0
 22 23  1  0
 23 24  1  0
 24 25  2  0
 25 26  1  0
 25 27  1  0
 27 28  1  0
 27 29  2  0
 13 30  1  0
 30 31  2  0
 31  2  1  0
 30  5  1  0
 12  8  1  0
 29 23  1  0
M  END
>  <name>  (183) 
WEZDUCRJKPYBPH-UHFFFAOYSA-N-P44-P44-P59-607685

>  <HIPPO Compound ID>  (183) 
98799

>  <energy_score>  (183) 
-1.04041

>  <HIPPO Pose ID>  (183) 
62382

>  <inspiration_score>  (183) 
None

>  <ref_pdb>  (183) 
7gp2-a

>  <inchikey>  (183) 
WEZDUCRJKPYBPH-UHFFFAOYSA-N

>  <alias>  (183) 
WEZDUCRJKPYBPH-UHFFFAOYSA-N-P44-P44-P59-607685

>  <distance_score>  (183) 
1.460009

>  <ref_mols>  (183) 
7goy-a,7gp2-a

>  <smiles>  (183) 
Cc1ccc2[nH]c(-c3cccs3)c(CCC(=O)NNC(=O)Cn3cc(Cl)c(C)n3)c2c1

$$$$
BHDHSJFYVXRDFL-UHFFFAOYSA-N-P59-P44-P59-607686
     RDKit          3D

 31 33  0  0  0  0  0  0  0  0999 V2000
    0.4427    8.5280   27.6784 C   0  0  0  0  0  0  0  0  0  0  0  0
    0.0117    7.2590   27.0031 C   0  0  0  0  0  0  0  0  0  0  0  0
   -1.0984    7.2577   26.1548 C   0  0  0  0  0  0  0  0  0  0  0  0
   -1.5579    6.0715   25.5662 C   0  0  0  0  0  0  0  0  0  0  0  0
   -0.8815    4.8698   25.8193 C   0  0  0  0  0  0  0  0  0  0  0  0
   -1.1451    3.5050   25.5370 C   0  0  0  0  0  0  0  0  0  0  0  0
   -2.4376    2.9366   25.0823 C   0  0  0  0  0  0  0  0  0  0  0  0
   -3.2515    2.4503   26.2802 C   0  0  0  0  0  0  0  0  0  0  0  0
   -2.4934    1.4030   27.0931 C   0  0  0  0  0  0  0  0  0  0  0  0
   -2.5752    0.2606   26.8663 O   0  0  0  0  0  0  0  0  0  0  0  0
   -1.6443    2.1616   28.1542 N   0  0  0  0  0  0  0  0  0  0  0  0
   -0.8596    1.6951   29.1349 N   0  0  0  0  0  0  0  0  0  0  0  0
    0.6498    1.9855   29.4575 C   0  0  0  0  0  0  0  0  0  0  0  0
    1.4033    2.7339   28.9581 O   0  0  0  0  0  0  0  0  0  0  0  0
    1.0213    1.1630   30.6894 C   0  0  2  0  0  0  0  0  0  0  0  0
    2.5248    1.0125   30.8965 C   0  0  0  0  0  0  0  0  0  0  0  0
    0.3280   -0.1162   30.6923 N   0  0  0  0  0  0  0  0  0  0  0  0
   -0.6912   -0.2444   31.5735 N   0  0  0  0  0  0  0  0  0  0  0  0
   -1.1966   -1.4699   31.3232 C   0  0  0  0  0  0  0  0  0  0  0  0
   -2.2833   -2.0699   32.1575 C   0  0  0  0  0  0  0  0  0  0  0  0
   -2.9564   -1.1454   32.8996 F   0  0  0  0  0  0  0  0  0  0  0  0
   -3.2204   -2.7203   31.4180 F   0  0  0  0  0  0  0  0  0  0  0  0
   -1.7790   -2.9869   33.0172 F   0  0  0  0  0  0  0  0  0  0  0  0
   -0.5371   -2.0514   30.2171 C   0  0  0  0  0  0  0  0  0  0  0  0
   -0.7198   -3.6009   29.5847 Cl  0  0  0  0  0  0  0  0  0  0  0  0
    0.2974   -1.0798   29.7170 C   0  0  0  0  0  0  0  0  0  0  0  0
    0.9843   -1.0131   28.3988 C   0  0  0  0  0  0  0  0  0  0  0  0
   -0.0488    2.7880   25.9706 C   0  0  0  0  0  0  0  0  0  0  0  0
    0.7730    3.6401   26.6450 N   0  0  0  0  0  0  0  0  0  0  0  0
    0.2494    4.9020   26.6268 C   0  0  0  0  0  0  0  0  0  0  0  0
    0.6904    6.0598   27.2662 C   0  0  0  0  0  0  0  0  0  0  0  0
  1  2  1  0
  2  3  2  0
  3  4  1  0
  4  5  2  0
  5  6  1  0
  6  7  1  0
  7  8  1  0
  8  9  1  0
  9 10  2  0
  9 11  1  0
 11 12  1  0
 12 13  1  0
 13 14  2  0
 13 15  1  0
 15 16  1  6
 15 17  1  0
 17 18  1  0
 18 19  2  0
 19 20  1  0
 20 21  1  0
 20 22  1  0
 20 23  1  0
 19 24  1  0
 24 25  1  0
 24 26  2  0
 26 27  1  0
  6 28  2  0
 28 29  1  0
 29 30  1  0
 30 31  2  0
 31  2  1  0
 30  5  1  0
 26 17  1  0
M  END
>  <name>  (184) 
BHDHSJFYVXRDFL-UHFFFAOYSA-N-P59-P44-P59-607686

>  <HIPPO Compound ID>  (184) 
98826

>  <energy_score>  (184) 
-3.576407

>  <HIPPO Pose ID>  (184) 
62437

>  <inspiration_score>  (184) 
None

>  <ref_pdb>  (184) 
7gp2-a

>  <inchikey>  (184) 
BHDHSJFYVXRDFL-UHFFFAOYSA-N

>  <alias>  (184) 
BHDHSJFYVXRDFL-UHFFFAOYSA-N-P59-P44-P59-607686

>  <distance_score>  (184) 
1.938921

>  <ref_mols>  (184) 
7goy-a,7gp2-a

>  <smiles>  (184) 
Cc1ccc2c(CCC(=O)NNC(=O)C(C)n3nc(C(F)(F)F)c(Cl)c3C)c[nH]c2c1

$$$$
XGJCBQMEPXJPMU-UHFFFAOYSA-N-P59-P44-P59-607686
     RDKit          3D

 31 34  0  0  0  0  0  0  0  0999 V2000
   -1.9352    5.0552   25.3262 C   0  0  0  0  0  0  0  0  0  0  0  0
   -1.6958    3.7588   26.0389 C   0  0  0  0  0  0  0  0  0  0  0  0
   -2.7130    2.7872   26.0377 C   0  0  0  0  0  0  0  0  0  0  0  0
   -2.5029    1.5176   26.5565 C   0  0  0  0  0  0  0  0  0  0  0  0
   -1.2691    1.1424   27.0696 C   0  0  0  0  0  0  0  0  0  0  0  0
   -0.2587    2.1048   27.0533 C   0  0  0  0  0  0  0  0  0  0  0  0
    1.0645    1.9786   27.3768 N   0  0  0  0  0  0  0  0  0  0  0  0
    1.7124    3.1677   27.2117 C   0  0  0  0  0  0  0  0  0  0  0  0
    0.7720    4.1239   26.8913 C   0  0  0  0  0  0  0  0  0  0  0  0
    1.0307    5.5974   26.9746 C   0  0  0  0  0  0  0  0  0  0  0  0
    0.6407    6.1817   28.3462 C   0  0  0  0  0  0  0  0  0  0  0  0
    1.3609    5.4635   29.4978 C   0  0  0  0  0  0  0  0  0  0  0  0
    2.4070    5.7960   29.9033 O   0  0  0  0  0  0  0  0  0  0  0  0
    0.4765    4.2338   29.8713 N   0  0  0  0  0  0  0  0  0  0  0  0
    0.7274    3.1915   30.6898 N   0  0  0  0  0  0  0  0  0  0  0  0
    1.8390    2.0962   30.6239 C   0  0  0  0  0  0  0  0  0  0  0  0
    2.7477    1.9806   29.8946 O   0  0  0  0  0  0  0  0  0  0  0  0
    1.5017    1.0521   31.6574 C   0  0  0  0  0  0  0  0  0  0  0  0
    0.4168    0.1987   31.2006 N   0  0  0  0  0  0  0  0  0  0  0  0
   -0.7468    0.2331   31.8993 N   0  0  0  0  0  0  0  0  0  0  0  0
   -1.4463   -0.8171   31.4220 C   0  0  0  0  0  0  0  0  0  0  0  0
   -2.7691   -1.2243   31.9751 C   0  0  0  0  0  0  0  0  0  0  0  0
   -3.0072   -0.7146   33.2165 F   0  0  0  0  0  0  0  0  0  0  0  0
   -2.9022   -2.5758   32.0792 F   0  0  0  0  0  0  0  0  0  0  0  0
   -0.7838   -1.4107   30.3299 C   0  0  0  0  0  0  0  0  0  0  0  0
   -1.3187   -2.7121   29.4041 Cl  0  0  0  0  0  0  0  0  0  0  0  0
    0.4030   -0.7343   30.1995 C   0  0  0  0  0  0  0  0  0  0  0  0
    1.4458   -1.0700   29.0964 C   0  0  0  0  0  0  0  0  0  0  0  0
    2.9267   -1.0788   29.3496 C   0  0  0  0  0  0  0  0  0  0  0  0
    2.1952   -2.3770   29.2219 C   0  0  0  0  0  0  0  0  0  0  0  0
   -0.4477    3.4178   26.6111 C   0  0  0  0  0  0  0  0  0  0  0  0
  1  2  1  0
  2  3  2  0
  3  4  1  0
  4  5  2  0
  5  6  1  0
  6  7  1  0
  7  8  1  0
  8  9  2  0
  9 10  1  0
 10 11  1  0
 11 12  1  0
 12 13  2  0
 12 14  1  0
 14 15  1  0
 15 16  1  0
 16 17  2  0
 16 18  1  0
 18 19  1  0
 19 20  1  0
 20 21  2  0
 21 22  1  0
 22 23  1  0
 22 24  1  0
 21 25  1  0
 25 26  1  0
 25 27  2  0
 27 28  1  0
 28 29  1  0
 29 30  1  0
  9 31  1  0
 31  2  1  0
 31  6  2  0
 27 19  1  0
 30 28  1  0
M  END
>  <name>  (185) 
XGJCBQMEPXJPMU-UHFFFAOYSA-N-P59-P44-P59-607686

>  <HIPPO Compound ID>  (185) 
98827

>  <energy_score>  (185) 
-19.869716

>  <HIPPO Pose ID>  (185) 
62439

>  <inspiration_score>  (185) 
None

>  <ref_pdb>  (185) 
7gp2-a

>  <inchikey>  (185) 
XGJCBQMEPXJPMU-UHFFFAOYSA-N

>  <alias>  (185) 
XGJCBQMEPXJPMU-UHFFFAOYSA-N-P59-P44-P59-607686

>  <distance_score>  (185) 
1.432245

>  <ref_mols>  (185) 
7goy-a,7gp2-a

>  <smiles>  (185) 
Cc1cccc2[nH]cc(CCC(=O)NNC(=O)Cn3nc(C(F)F)c(Cl)c3C3CC3)c12

$$$$
XVEMTTWBNNGQHG-UHFFFAOYSA-N-P59-P44-P59-607686
     RDKit          3D

 32 35  0  0  0  0  0  0  0  0999 V2000
    2.9237    4.4114   25.1655 C   0  0  0  0  0  0  0  0  0  0  0  0
    2.6067    2.9281   25.3259 C   0  0  0  0  0  0  0  0  0  0  0  0
    2.2111    2.5389   26.7687 C   0  0  2  0  0  0  0  0  0  0  0  0
    2.3795    1.0267   27.0401 C   0  0  0  0  0  0  0  0  0  0  0  0
    1.1562    0.3269   27.3018 N   0  0  0  0  0  0  0  0  0  0  0  0
    0.9037   -1.0261   28.0121 C   0  0  0  0  0  0  0  0  0  0  0  0
    1.6576   -1.8158   28.4251 O   0  0  0  0  0  0  0  0  0  0  0  0
   -0.6061   -1.1222   28.1901 C   0  0  0  0  0  0  0  0  0  0  0  0
   -1.1238   -0.0540   29.1537 C   0  0  0  0  0  0  0  0  0  0  0  0
   -0.7316   -0.3107   30.5782 C   0  0  0  0  0  0  0  0  0  0  0  0
    0.5051   -0.0818   31.1726 C   0  0  0  0  0  0  0  0  0  0  0  0
    1.7001    0.6656   30.8006 C   0  0  0  0  0  0  0  0  0  0  0  0
    2.9489    0.0336   30.7320 C   0  0  0  0  0  0  0  0  0  0  0  0
    4.1132    0.7829   30.5418 C   0  0  0  0  0  0  0  0  0  0  0  0
    4.0307    2.1690   30.4325 C   0  0  0  0  0  0  0  0  0  0  0  0
    5.4577    3.0957   30.1846 Cl  0  0  0  0  0  0  0  0  0  0  0  0
    2.7959    2.8105   30.5061 C   0  0  0  0  0  0  0  0  0  0  0  0
    1.6307    2.0588   30.6797 C   0  0  0  0  0  0  0  0  0  0  0  0
    0.4697   -0.6915   32.4012 N   0  0  0  0  0  0  0  0  0  0  0  0
   -0.8123   -0.9996   32.7503 C   0  0  0  0  0  0  0  0  0  0  0  0
   -1.3116   -1.4476   33.9744 C   0  0  0  0  0  0  0  0  0  0  0  0
   -2.6911   -1.5012   34.1310 C   0  0  0  0  0  0  0  0  0  0  0  0
   -3.5228   -1.1646   33.0800 C   0  0  0  0  0  0  0  0  0  0  0  0
   -5.2105   -1.0382   33.3907 Cl  0  0  0  0  0  0  0  0  0  0  0  0
   -2.9923   -0.8387   31.8216 C   0  0  0  0  0  0  0  0  0  0  0  0
   -1.6012   -0.7302   31.6441 C   0  0  0  0  0  0  0  0  0  0  0  0
    0.9011    3.0931   27.1336 N   0  0  0  0  0  0  0  0  0  0  0  0
    0.7322    4.2501   27.8360 C   0  0  0  0  0  0  0  0  0  0  0  0
   -0.5439    4.6689   27.5746 C   0  0  0  0  0  0  0  0  0  0  0  0
   -1.1860    6.1795   27.9672 Cl  0  0  0  0  0  0  0  0  0  0  0  0
   -1.1333    3.6224   26.8437 C   0  0  0  0  0  0  0  0  0  0  0  0
   -0.2612    2.6330   26.5864 N   0  0  0  0  0  0  0  0  0  0  0  0
  1  2  1  0
  3  2  1  6
  3  4  1  0
  4  5  1  0
  5  6  1  0
  6  7  2  0
  6  8  1  0
  8  9  1  0
  9 10  1  0
 10 11  2  0
 11 12  1  0
 12 13  2  0
 13 14  1  0
 14 15  2  0
 15 16  1  0
 15 17  1  0
 17 18  2  0
 11 19  1  0
 19 20  1  0
 20 21  2  0
 21 22  1  0
 22 23  2  0
 23 24  1  0
 23 25  1  0
 25 26  2  0
  3 27  1  0
 27 28  1  0
 28 29  2  0
 29 30  1  0
 29 31  1  0
 31 32  2  0
 26 10  1  0
 32 27  1  0
 18 12  1  0
 26 20  1  0
M  END
>  <name>  (186) 
XVEMTTWBNNGQHG-UHFFFAOYSA-N-P59-P44-P59-607686

>  <HIPPO Compound ID>  (186) 
98842

>  <energy_score>  (186) 
-9.034324

>  <HIPPO Pose ID>  (186) 
62469

>  <inspiration_score>  (186) 
None

>  <ref_pdb>  (186) 
7gp2-a

>  <inchikey>  (186) 
XVEMTTWBNNGQHG-UHFFFAOYSA-N

>  <alias>  (186) 
XVEMTTWBNNGQHG-UHFFFAOYSA-N-P59-P44-P59-607686

>  <distance_score>  (186) 
1.96826

>  <ref_mols>  (186) 
7goy-a,7gp2-a

>  <smiles>  (186) 
CCC(CNC(=O)CCc1c(-c2ccc(Cl)cc2)[nH]c2ccc(Cl)cc12)n1cc(Cl)cn1

$$$$
UXXTYKDCNBECCI-UHFFFAOYSA-N-P44-P44-P59-607686
     RDKit          3D

 32 35  0  0  0  0  0  0  0  0999 V2000
    2.8500    5.2732   29.9390 O   0  0  0  0  0  0  0  0  0  0  0  0
    1.8493    4.7401   29.6597 C   0  0  0  0  0  0  0  0  0  0  0  0
    0.9576    5.2531   28.5335 C   0  0  0  0  0  0  0  0  0  0  0  0
    1.2470    4.5592   27.1964 C   0  0  0  0  0  0  0  0  0  0  0  0
    0.5262    3.2450   27.0852 C   0  0  0  0  0  0  0  0  0  0  0  0
    0.9766    1.9410   27.3375 C   0  0  0  0  0  0  0  0  0  0  0  0
    2.3114    1.3384   27.6023 C   0  0  0  0  0  0  0  0  0  0  0  0
    3.4314    2.0881   27.9798 C   0  0  0  0  0  0  0  0  0  0  0  0
    4.6749    1.4897   28.2275 C   0  0  0  0  0  0  0  0  0  0  0  0
    4.8317    0.1165   28.0966 C   0  0  0  0  0  0  0  0  0  0  0  0
    3.7437   -0.6564   27.7179 C   0  0  0  0  0  0  0  0  0  0  0  0
    2.5052   -0.0504   27.4740 C   0  0  0  0  0  0  0  0  0  0  0  0
   -0.1641    1.1626   27.3254 N   0  0  0  0  0  0  0  0  0  0  0  0
   -1.2395    1.8703   26.8790 C   0  0  0  0  0  0  0  0  0  0  0  0
   -2.5303    1.4353   26.6274 C   0  0  0  0  0  0  0  0  0  0  0  0
   -3.4133    2.3310   26.0325 C   0  0  0  0  0  0  0  0  0  0  0  0
   -3.0010    3.6113   25.6966 C   0  0  0  0  0  0  0  0  0  0  0  0
   -1.7295    4.0650   26.0432 C   0  0  0  0  0  0  0  0  0  0  0  0
   -0.8251    3.1621   26.6315 C   0  0  0  0  0  0  0  0  0  0  0  0
    1.2064    3.4484   30.2282 N   0  0  0  0  0  0  0  0  0  0  0  0
    1.7094    2.4960   31.1905 C   0  0  0  0  0  0  0  0  0  0  0  0
    0.6535    1.8192   32.0522 C   0  0  0  0  0  0  0  0  0  0  0  0
   -0.1092    0.7229   31.4754 N   0  0  0  0  0  0  0  0  0  0  0  0
    0.1664   -0.0596   30.3973 C   0  0  0  0  0  0  0  0  0  0  0  0
   -0.7421   -1.0892   30.4089 C   0  0  0  0  0  0  0  0  0  0  0  0
   -0.8084   -2.3896   29.3304 Cl  0  0  0  0  0  0  0  0  0  0  0  0
   -1.5197   -0.8833   31.5692 C   0  0  0  0  0  0  0  0  0  0  0  0
   -2.5319   -1.8116   32.1608 C   0  0  0  0  0  0  0  0  0  0  0  0
   -3.3657   -1.1886   33.0361 F   0  0  0  0  0  0  0  0  0  0  0  0
   -3.3258   -2.4013   31.2305 F   0  0  0  0  0  0  0  0  0  0  0  0
   -1.9329   -2.8328   32.8269 F   0  0  0  0  0  0  0  0  0  0  0  0
   -1.1619    0.2647   32.1839 N   0  0  0  0  0  0  0  0  0  0  0  0
  1  2  2  0
  2  3  1  0
  3  4  1  0
  4  5  1  0
  5  6  2  0
  6  7  1  0
  7  8  2  0
  8  9  1  0
  9 10  2  0
 10 11  1  0
 11 12  2  0
  6 13  1  0
 13 14  1  0
 14 15  2  0
 15 16  1  0
 16 17  2  0
 17 18  1  0
 18 19  2  0
  2 20  1  0
 20 21  1  0
 21 22  1  0
 22 23  1  0
 23 24  1  0
 24 25  2  0
 25 26  1  0
 25 27  1  0
 27 28  1  0
 28 29  1  0
 28 30  1  0
 28 31  1  0
 27 32  2  0
 19  5  1  0
 32 23  1  0
 12  7  1  0
 19 14  1  0
M  END
>  <name>  (187) 
UXXTYKDCNBECCI-UHFFFAOYSA-N-P44-P44-P59-607686

>  <HIPPO Compound ID>  (187) 
98848

>  <energy_score>  (187) 
-12.65394

>  <HIPPO Pose ID>  (187) 
62480

>  <inspiration_score>  (187) 
None

>  <ref_pdb>  (187) 
7gp2-a

>  <inchikey>  (187) 
UXXTYKDCNBECCI-UHFFFAOYSA-N

>  <alias>  (187) 
UXXTYKDCNBECCI-UHFFFAOYSA-N-P44-P44-P59-607686

>  <distance_score>  (187) 
1.735974

>  <ref_mols>  (187) 
7goy-a,7gp2-a

>  <smiles>  (187) 
O=C(CCc1c(-c2ccccc2)[nH]c2ccccc12)NCCn1cc(Cl)c(C(F)(F)F)n1

$$$$
JTLUQZRSCIUIKC-UHFFFAOYSA-N-P59-P44-P59-607686
     RDKit          3D

 32 35  0  0  0  0  0  0  0  0999 V2000
   -2.9541   -1.5544   32.2970 C   0  0  0  0  0  0  0  0  0  0  0  0
   -1.8226   -0.8901   31.6089 C   0  0  0  0  0  0  0  0  0  0  0  0
   -1.3220    0.2478   32.1014 N   0  0  0  0  0  0  0  0  0  0  0  0
   -0.2436    0.5258   31.3212 N   0  0  0  0  0  0  0  0  0  0  0  0
    0.6172    1.6004   31.8267 C   0  0  0  0  0  0  0  0  0  0  0  0
    1.6259    2.1846   30.8666 C   0  0  0  0  0  0  0  0  0  0  0  0
    2.6515    1.6519   30.6740 O   0  0  0  0  0  0  0  0  0  0  0  0
    1.0040    3.4536   30.2002 N   0  0  0  0  0  0  0  0  0  0  0  0
    1.4442    4.2055   29.1771 N   0  0  0  0  0  0  0  0  0  0  0  0
    0.9825    5.6083   28.6815 C   0  0  0  0  0  0  0  0  0  0  0  0
    0.2041    6.3527   29.1348 O   0  0  0  0  0  0  0  0  0  0  0  0
    1.6864    5.8414   27.3438 C   0  0  0  0  0  0  0  0  0  0  0  0
    0.8409    5.3418   26.1609 C   0  0  0  0  0  0  0  0  0  0  0  0
    0.3562    3.9209   26.2919 C   0  0  0  0  0  0  0  0  0  0  0  0
    1.1193    2.7687   26.4542 C   0  0  0  0  0  0  0  0  0  0  0  0
    2.5572    2.5469   26.2550 C   0  0  0  0  0  0  0  0  0  0  0  0
    3.1627    2.9926   25.0715 C   0  0  0  0  0  0  0  0  0  0  0  0
    4.5225    2.7783   24.8361 C   0  0  0  0  0  0  0  0  0  0  0  0
    5.2978    2.1199   25.7858 C   0  0  0  0  0  0  0  0  0  0  0  0
    4.7114    1.6719   26.9658 C   0  0  0  0  0  0  0  0  0  0  0  0
    3.3483    1.8789   27.1946 C   0  0  0  0  0  0  0  0  0  0  0  0
    0.2470    1.7759   26.8309 N   0  0  0  0  0  0  0  0  0  0  0  0
   -1.0437    2.1815   26.6367 C   0  0  0  0  0  0  0  0  0  0  0  0
   -2.2264    1.4585   26.7386 C   0  0  0  0  0  0  0  0  0  0  0  0
   -3.3708    2.0561   26.2183 C   0  0  0  0  0  0  0  0  0  0  0  0
   -3.3266    3.3215   25.6527 C   0  0  0  0  0  0  0  0  0  0  0  0
   -2.1648    4.0854   25.6924 C   0  0  0  0  0  0  0  0  0  0  0  0
   -0.9930    3.4901   26.1756 C   0  0  0  0  0  0  0  0  0  0  0  0
   -0.1159   -0.3727   30.2855 C   0  0  0  0  0  0  0  0  0  0  0  0
    0.9330   -0.3785   29.2454 C   0  0  0  0  0  0  0  0  0  0  0  0
   -1.1061   -1.3102   30.4778 C   0  0  0  0  0  0  0  0  0  0  0  0
   -1.3435   -2.7280   29.5938 Cl  0  0  0  0  0  0  0  0  0  0  0  0
  1  2  1  0
  2  3  2  0
  3  4  1  0
  4  5  1  0
  5  6  1  0
  6  7  2  0
  6  8  1  0
  8  9  1  0
  9 10  1  0
 10 11  2  0
 10 12  1  0
 12 13  1  0
 13 14  1  0
 14 15  2  0
 15 16  1  0
 16 17  2  0
 17 18  1  0
 18 19  2  0
 19 20  1  0
 20 21  2  0
 15 22  1  0
 22 23  1  0
 23 24  2  0
 24 25  1  0
 25 26  2  0
 26 27  1  0
 27 28  2  0
  4 29  1  0
 29 30  1  0
 29 31  2  0
 31 32  1  0
 31  2  1  0
 28 14  1  0
 21 16  1  0
 28 23  1  0
M  END
>  <name>  (188) 
JTLUQZRSCIUIKC-UHFFFAOYSA-N-P59-P44-P59-607686

>  <HIPPO Compound ID>  (188) 
98852

>  <energy_score>  (188) 
-10.70589

>  <HIPPO Pose ID>  (188) 
62489

>  <inspiration_score>  (188) 
None

>  <ref_pdb>  (188) 
7gp2-a

>  <inchikey>  (188) 
JTLUQZRSCIUIKC-UHFFFAOYSA-N

>  <alias>  (188) 
JTLUQZRSCIUIKC-UHFFFAOYSA-N-P59-P44-P59-607686

>  <distance_score>  (188) 
1.749547

>  <ref_mols>  (188) 
7goy-a,7gp2-a

>  <smiles>  (188) 
Cc1nn(CC(=O)NNC(=O)CCc2c(-c3ccccc3)[nH]c3ccccc23)c(C)c1Cl

$$$$
JPDGLVJTUZPGMP-UHFFFAOYSA-N-P59-P44-P59-607686
     RDKit          3D

 32 35  0  0  0  0  0  0  0  0999 V2000
   -2.8463    5.0714   24.2465 C   0  0  0  0  0  0  0  0  0  0  0  0
   -2.2571    4.0894   25.2161 C   0  0  0  0  0  0  0  0  0  0  0  0
   -2.9865    2.9850   25.6584 C   0  0  0  0  0  0  0  0  0  0  0  0
   -2.4119    1.9915   26.4536 C   0  0  0  0  0  0  0  0  0  0  0  0
   -1.0617    2.1353   26.7693 C   0  0  0  0  0  0  0  0  0  0  0  0
   -0.2074    1.2758   27.4047 N   0  0  0  0  0  0  0  0  0  0  0  0
    1.0974    1.7297   27.3276 C   0  0  0  0  0  0  0  0  0  0  0  0
    2.2056    0.8423   27.6364 C   0  0  0  0  0  0  0  0  0  0  0  0
    2.1423   -0.5330   27.8094 C   0  0  0  0  0  0  0  0  0  0  0  0
    3.3999   -1.1271   28.1203 C   0  0  0  0  0  0  0  0  0  0  0  0
    4.4075   -0.1949   28.1491 C   0  0  0  0  0  0  0  0  0  0  0  0
    3.8330    1.3673   27.7881 S   0  0  0  0  0  0  0  0  0  0  0  0
    1.0326    3.0487   26.8695 C   0  0  0  0  0  0  0  0  0  0  0  0
    2.1343    4.0573   26.6556 C   0  0  0  0  0  0  0  0  0  0  0  0
    2.6835    4.8014   27.8777 C   0  0  0  0  0  0  0  0  0  0  0  0
    1.8103    4.7655   29.1241 C   0  0  0  0  0  0  0  0  0  0  0  0
    1.0597    5.6118   29.4116 O   0  0  0  0  0  0  0  0  0  0  0  0
    2.1015    3.4022   29.8105 N   0  0  0  0  0  0  0  0  0  0  0  0
    1.5077    2.8109   30.8520 N   0  0  0  0  0  0  0  0  0  0  0  0
    2.0109    1.6726   31.7914 C   0  0  0  0  0  0  0  0  0  0  0  0
    3.0501    1.1357   31.8428 O   0  0  0  0  0  0  0  0  0  0  0  0
    0.8449    1.2082   32.6696 C   0  0  1  0  0  0  0  0  0  0  0  0
    0.2985    2.3322   33.5506 C   0  0  0  0  0  0  0  0  0  0  0  0
   -0.1691    0.4671   31.9096 N   0  0  0  0  0  0  0  0  0  0  0  0
   -0.0893   -0.0283   30.6387 C   0  0  0  0  0  0  0  0  0  0  0  0
   -1.1642   -0.8607   30.4670 C   0  0  0  0  0  0  0  0  0  0  0  0
   -1.5232   -1.7808   29.0999 Cl  0  0  0  0  0  0  0  0  0  0  0  0
   -1.8515   -0.8204   31.6974 C   0  0  0  0  0  0  0  0  0  0  0  0
   -3.0299   -1.5973   32.1440 C   0  0  0  0  0  0  0  0  0  0  0  0
   -1.2849    0.0494   32.5476 N   0  0  0  0  0  0  0  0  0  0  0  0
   -0.3127    3.2477   26.4059 C   0  0  0  0  0  0  0  0  0  0  0  0
   -0.9335    4.2546   25.6394 C   0  0  0  0  0  0  0  0  0  0  0  0
  1  2  1  0
  2  3  2  0
  3  4  1  0
  4  5  2  0
  5  6  1  0
  6  7  1  0
  7  8  1  0
  8  9  2  0
  9 10  1  0
 10 11  2  0
 11 12  1  0
  7 13  2  0
 13 14  1  0
 14 15  1  0
 15 16  1  0
 16 17  2  0
 16 18  1  0
 18 19  1  0
 19 20  1  0
 20 21  2  0
 20 22  1  0
 22 23  1  6
 22 24  1  0
 24 25  1  0
 25 26  2  0
 26 27  1  0
 26 28  1  0
 28 29  1  0
 28 30  2  0
 13 31  1  0
 31 32  2  0
 32  2  1  0
 31  5  1  0
 12  8  1  0
 30 24  1  0
M  END
>  <name>  (189) 
JPDGLVJTUZPGMP-UHFFFAOYSA-N-P59-P44-P59-607686

>  <HIPPO Compound ID>  (189) 
98869

>  <energy_score>  (189) 
-9.060204

>  <HIPPO Pose ID>  (189) 
62523

>  <inspiration_score>  (189) 
None

>  <ref_pdb>  (189) 
7gp2-a

>  <inchikey>  (189) 
JPDGLVJTUZPGMP-UHFFFAOYSA-N

>  <alias>  (189) 
JPDGLVJTUZPGMP-UHFFFAOYSA-N-P59-P44-P59-607686

>  <distance_score>  (189) 
1.38126

>  <ref_mols>  (189) 
7goy-a,7gp2-a

>  <smiles>  (189) 
Cc1ccc2[nH]c(-c3cccs3)c(CCC(=O)NNC(=O)C(C)n3cc(Cl)c(C)n3)c2c1

$$$$
ZAAFOZXJZQPHSP-UHFFFAOYSA-N-P59-P44-P59-607686
     RDKit          3D

 32 35  0  0  0  0  0  0  0  0999 V2000
   -2.8163   -1.6272   31.9406 C   0  0  0  0  0  0  0  0  0  0  0  0
   -1.5495   -1.0681   31.4154 C   0  0  0  0  0  0  0  0  0  0  0  0
   -1.0262    0.0255   31.9897 N   0  0  0  0  0  0  0  0  0  0  0  0
    0.1762    0.1729   31.3866 N   0  0  0  0  0  0  0  0  0  0  0  0
    1.0904    1.1467   31.9567 C   0  0  0  0  0  0  0  0  0  0  0  0
    2.4807    1.2830   31.3343 C   0  0  0  0  0  0  0  0  0  0  0  0
    2.5033    2.1682   30.1939 N   0  0  0  0  0  0  0  0  0  0  0  0
    2.4303    1.8562   28.6723 C   0  0  0  0  0  0  0  0  0  0  0  0
    2.4185    0.8320   28.1093 O   0  0  0  0  0  0  0  0  0  0  0  0
    2.3642    3.2099   27.9305 C   0  0  2  0  0  0  0  0  0  0  0  0
    1.0106    3.9041   28.1561 C   0  0  0  0  0  0  0  0  0  0  0  0
   -0.1919    3.1476   27.6699 C   0  0  0  0  0  0  0  0  0  0  0  0
   -0.7152    1.9945   28.2176 C   0  0  0  0  0  0  0  0  0  0  0  0
   -1.8540    1.6689   27.5503 N   0  0  0  0  0  0  0  0  0  0  0  0
   -2.0895    2.6047   26.5803 C   0  0  0  0  0  0  0  0  0  0  0  0
   -3.1556    2.7173   25.6966 C   0  0  0  0  0  0  0  0  0  0  0  0
   -3.1167    3.7330   24.7364 C   0  0  0  0  0  0  0  0  0  0  0  0
   -2.0690    4.6419   24.7010 C   0  0  0  0  0  0  0  0  0  0  0  0
   -1.0389    4.5569   25.6387 C   0  0  0  0  0  0  0  0  0  0  0  0
   -1.0415    3.5160   26.5893 C   0  0  0  0  0  0  0  0  0  0  0  0
    2.6018    3.0387   26.4784 N   0  0  0  0  0  0  0  0  0  0  0  0
    4.1911    2.9737   25.9387 S   0  0  0  0  0  0  0  0  0  0  0  0
    4.9404    4.0009   26.6293 O   0  0  0  0  0  0  0  0  0  0  0  0
    4.1266    2.9213   24.4963 O   0  0  0  0  0  0  0  0  0  0  0  0
    4.8994    1.4043   26.3966 C   0  0  0  0  0  0  0  0  0  0  0  0
    4.7564    0.1451   25.8432 C   0  0  0  0  0  0  0  0  0  0  0  0
    5.4816   -0.8533   26.5537 C   0  0  0  0  0  0  0  0  0  0  0  0
    6.1767   -0.3206   27.6157 C   0  0  0  0  0  0  0  0  0  0  0  0
    5.9450    1.3696   27.7521 S   0  0  0  0  0  0  0  0  0  0  0  0
    0.3744   -0.7223   30.3812 C   0  0  0  0  0  0  0  0  0  0  0  0
   -0.7197   -1.5488   30.3802 C   0  0  0  0  0  0  0  0  0  0  0  0
   -0.9475   -2.9009   29.3996 Cl  0  0  0  0  0  0  0  0  0  0  0  0
  1  2  1  0
  2  3  2  0
  3  4  1  0
  4  5  1  0
  5  6  1  0
  6  7  1  0
  7  8  1  0
  8  9  2  0
  8 10  1  0
 10 11  1  6
 11 12  1  0
 12 13  2  0
 13 14  1  0
 14 15  1  0
 15 16  2  0
 16 17  1  0
 17 18  2  0
 18 19  1  0
 19 20  2  0
 10 21  1  0
 21 22  1  0
 22 23  2  0
 22 24  2  0
 22 25  1  0
 25 26  2  0
 26 27  1  0
 27 28  2  0
 28 29  1  0
  4 30  1  0
 30 31  2  0
 31 32  1  0
 31  2  1  0
 20 12  1  0
 29 25  1  0
 20 15  1  0
M  END
>  <name>  (190) 
ZAAFOZXJZQPHSP-UHFFFAOYSA-N-P59-P44-P59-607686

>  <HIPPO Compound ID>  (190) 
98899

>  <energy_score>  (190) 
-40.619394

>  <HIPPO Pose ID>  (190) 
62583

>  <inspiration_score>  (190) 
None

>  <ref_pdb>  (190) 
7gp2-a

>  <inchikey>  (190) 
ZAAFOZXJZQPHSP-UHFFFAOYSA-N

>  <alias>  (190) 
ZAAFOZXJZQPHSP-UHFFFAOYSA-N-P59-P44-P59-607686

>  <distance_score>  (190) 
1.949104

>  <ref_mols>  (190) 
7goy-a,7gp2-a

>  <smiles>  (190) 
Cc1nn(CCNC(=O)C(Cc2c[nH]c3ccccc23)NS(=O)(=O)c2cccs2)cc1Cl

$$$$
JPBBBGJIDZJWPX-UHFFFAOYSA-N-P44-P44-P59-607686
     RDKit          3D

 32 35  0  0  0  0  0  0  0  0999 V2000
   -2.8995   -1.5239   32.2093 C   0  0  0  0  0  0  0  0  0  0  0  0
   -1.6966   -0.8917   31.6165 C   0  0  0  0  0  0  0  0  0  0  0  0
   -1.1683    0.2007   32.1938 N   0  0  0  0  0  0  0  0  0  0  0  0
   -0.0161    0.4026   31.5179 N   0  0  0  0  0  0  0  0  0  0  0  0
    0.9358    1.3904   32.0190 C   0  0  0  0  0  0  0  0  0  0  0  0
    1.6666    2.0207   30.8584 C   0  0  0  0  0  0  0  0  0  0  0  0
    2.6516    1.5609   30.4261 O   0  0  0  0  0  0  0  0  0  0  0  0
    0.8164    3.2303   30.3662 N   0  0  0  0  0  0  0  0  0  0  0  0
    0.9449    3.9947   29.2769 N   0  0  0  0  0  0  0  0  0  0  0  0
    2.2043    4.6893   28.6694 C   0  0  0  0  0  0  0  0  0  0  0  0
    3.3005    4.7599   29.0741 O   0  0  0  0  0  0  0  0  0  0  0  0
    1.7573    5.2264   27.2813 C   0  0  2  0  0  0  0  0  0  0  0  0
    1.6991    4.0366   26.2828 C   0  0  0  0  0  0  0  0  0  0  0  0
    0.5258    3.1106   26.5082 C   0  0  0  0  0  0  0  0  0  0  0  0
    0.5482    1.8976   27.1784 C   0  0  0  0  0  0  0  0  0  0  0  0
   -0.7290    1.4311   27.2809 N   0  0  0  0  0  0  0  0  0  0  0  0
   -1.5686    2.2843   26.6142 C   0  0  0  0  0  0  0  0  0  0  0  0
   -2.9345    2.1893   26.3961 C   0  0  0  0  0  0  0  0  0  0  0  0
   -3.5278    3.1275   25.5545 C   0  0  0  0  0  0  0  0  0  0  0  0
   -2.7961    4.1696   25.0019 C   0  0  0  0  0  0  0  0  0  0  0  0
   -1.4412    4.3029   25.2915 C   0  0  0  0  0  0  0  0  0  0  0  0
   -0.8112    3.3236   26.0823 C   0  0  0  0  0  0  0  0  0  0  0  0
    2.6782    6.2910   26.8900 N   0  0  0  0  0  0  0  0  0  0  0  0
    3.8821    6.1414   26.2841 C   0  0  0  0  0  0  0  0  0  0  0  0
    4.3979    5.1462   25.8115 O   0  0  0  0  0  0  0  0  0  0  0  0
    4.5221    7.4616   26.2587 C   0  0  0  0  0  0  0  0  0  0  0  0
    3.7144    8.3182   26.8826 C   0  0  0  0  0  0  0  0  0  0  0  0
    2.5383    7.5674   27.3284 C   0  0  0  0  0  0  0  0  0  0  0  0
    1.6342    8.0511   27.9848 O   0  0  0  0  0  0  0  0  0  0  0  0
    0.1221   -0.4349   30.4466 C   0  0  0  0  0  0  0  0  0  0  0  0
   -0.9372   -1.3021   30.4991 C   0  0  0  0  0  0  0  0  0  0  0  0
   -1.2003   -2.6267   29.4912 Cl  0  0  0  0  0  0  0  0  0  0  0  0
  1  2  1  0
  2  3  2  0
  3  4  1  0
  4  5  1  0
  5  6  1  0
  6  7  2  0
  6  8  1  0
  8  9  1  0
  9 10  1  0
 10 11  2  0
 10 12  1  0
 12 13  1  6
 13 14  1  0
 14 15  2  0
 15 16  1  0
 16 17  1  0
 17 18  2  0
 18 19  1  0
 19 20  2  0
 20 21  1  0
 21 22  2  0
 12 23  1  0
 23 24  1  0
 24 25  2  0
 24 26  1  0
 26 27  2  0
 27 28  1  0
 28 29  2  0
  4 30  1  0
 30 31  2  0
 31 32  1  0
 31  2  1  0
 22 14  1  0
 28 23  1  0
 22 17  1  0
M  END
>  <name>  (191) 
JPBBBGJIDZJWPX-UHFFFAOYSA-N-P44-P44-P59-607686

>  <HIPPO Compound ID>  (191) 
98924

>  <energy_score>  (191) 
-1.10498

>  <HIPPO Pose ID>  (191) 
62632

>  <inspiration_score>  (191) 
None

>  <ref_pdb>  (191) 
7gp2-a

>  <inchikey>  (191) 
JPBBBGJIDZJWPX-UHFFFAOYSA-N

>  <alias>  (191) 
JPBBBGJIDZJWPX-UHFFFAOYSA-N-P44-P44-P59-607686

>  <distance_score>  (191) 
1.793032

>  <ref_mols>  (191) 
7goy-a,7gp2-a

>  <smiles>  (191) 
Cc1nn(CC(=O)NNC(=O)C(Cc2c[nH]c3ccccc23)N2C(=O)C=CC2=O)cc1Cl

$$$$
UFPNIQNQVBOBTB-UHFFFAOYSA-N-P44-P44-P59-607686
     RDKit          3D

 32 34  0  0  0  0  0  0  0  0999 V2000
    1.4183   -1.2489   29.2721 C   0  0  0  0  0  0  0  0  0  0  0  0
    0.4201   -0.9760   30.3298 C   0  0  0  0  0  0  0  0  0  0  0  0
   -0.5989   -1.7876   30.7697 C   0  0  0  0  0  0  0  0  0  0  0  0
   -0.9099   -3.3582   30.2240 Cl  0  0  0  0  0  0  0  0  0  0  0  0
   -1.2990   -1.0492   31.7471 C   0  0  0  0  0  0  0  0  0  0  0  0
   -2.5480   -1.4596   32.4605 C   0  0  0  0  0  0  0  0  0  0  0  0
   -2.5204   -1.1617   33.7849 F   0  0  0  0  0  0  0  0  0  0  0  0
   -3.6405   -0.8161   31.9639 F   0  0  0  0  0  0  0  0  0  0  0  0
   -2.8008   -2.7916   32.3593 F   0  0  0  0  0  0  0  0  0  0  0  0
   -0.6953    0.1403   31.9681 N   0  0  0  0  0  0  0  0  0  0  0  0
    0.2918    0.1941   31.0398 N   0  0  0  0  0  0  0  0  0  0  0  0
    0.8641    1.5036   30.7275 C   0  0  0  0  0  0  0  0  0  0  0  0
   -0.0571    2.1484   29.7114 C   0  0  0  0  0  0  0  0  0  0  0  0
   -0.8982    1.5124   29.1989 O   0  0  0  0  0  0  0  0  0  0  0  0
    0.2722    3.6680   29.5954 N   0  0  0  0  0  0  0  0  0  0  0  0
   -0.2669    4.6223   28.8105 N   0  0  0  0  0  0  0  0  0  0  0  0
    0.3983    5.8281   28.0827 C   0  0  0  0  0  0  0  0  0  0  0  0
    1.5002    6.2199   28.1171 O   0  0  0  0  0  0  0  0  0  0  0  0
   -0.6937    6.4151   27.1484 C   0  0  0  0  0  0  0  0  0  0  0  0
   -0.6929    5.6950   25.7565 C   0  0  1  0  0  0  0  0  0  0  0  0
   -0.7193    4.1912   25.9201 C   0  0  0  0  0  0  0  0  0  0  0  0
   -1.7806    3.3498   26.2106 C   0  0  0  0  0  0  0  0  0  0  0  0
   -1.2697    2.1312   26.5761 N   0  0  0  0  0  0  0  0  0  0  0  0
    0.1065    2.1757   26.5508 C   0  0  0  0  0  0  0  0  0  0  0  0
    1.0479    1.2215   26.9515 C   0  0  0  0  0  0  0  0  0  0  0  0
    2.4078    1.5277   26.8443 C   0  0  0  0  0  0  0  0  0  0  0  0
    2.8118    2.7518   26.3323 C   0  0  0  0  0  0  0  0  0  0  0  0
    1.8609    3.6980   25.9375 C   0  0  0  0  0  0  0  0  0  0  0  0
    0.4794    3.4142   26.0591 C   0  0  0  0  0  0  0  0  0  0  0  0
   -1.5149    6.3037   24.5773 C   0  0  0  0  0  0  0  0  0  0  0  0
   -2.6663    5.4603   24.0264 C   0  0  0  0  0  0  0  0  0  0  0  0
   -1.9720    7.7445   24.8191 C   0  0  0  0  0  0  0  0  0  0  0  0
  1  2  1  0
  2  3  2  0
  3  4  1  0
  3  5  1  0
  5  6  1  0
  6  7  1  0
  6  8  1  0
  6  9  1  0
  5 10  2  0
 10 11  1  0
 11 12  1  0
 12 13  1  0
 13 14  2  0
 13 15  1  0
 15 16  1  0
 16 17  1  0
 17 18  2  0
 17 19  1  0
 20 19  1  1
 20 21  1  0
 21 22  2  0
 22 23  1  0
 23 24  1  0
 24 25  2  0
 25 26  1  0
 26 27  2  0
 27 28  1  0
 28 29  2  0
 20 30  1  0
 30 31  1  0
 30 32  1  0
 11  2  1  0
 29 21  1  0
 29 24  1  0
M  END
>  <name>  (192) 
UFPNIQNQVBOBTB-UHFFFAOYSA-N-P44-P44-P59-607686

>  <HIPPO Compound ID>  (192) 
98957

>  <energy_score>  (192) 
-1.22422

>  <HIPPO Pose ID>  (192) 
62698

>  <inspiration_score>  (192) 
None

>  <ref_pdb>  (192) 
7gp2-a

>  <inchikey>  (192) 
UFPNIQNQVBOBTB-UHFFFAOYSA-N

>  <alias>  (192) 
UFPNIQNQVBOBTB-UHFFFAOYSA-N-P44-P44-P59-607686

>  <distance_score>  (192) 
1.782527

>  <ref_mols>  (192) 
7goy-a,7gp2-a

>  <smiles>  (192) 
Cc1c(Cl)c(C(F)(F)F)nn1CC(=O)NNC(=O)CC(c1c[nH]c2ccccc12)C(C)C

$$$$
COIUMPODBZVOIN-UHFFFAOYSA-N-P59-P44-P59-607686
     RDKit          3D

 32 35  0  0  0  0  0  0  0  0999 V2000
   -3.2413    4.7242   23.5081 C   0  0  0  0  0  0  0  0  0  0  0  0
   -2.6126    5.1387   24.7178 O   0  0  0  0  0  0  0  0  0  0  0  0
   -2.1899    4.1140   25.5230 C   0  0  0  0  0  0  0  0  0  0  0  0
   -2.8387    2.8879   25.6409 C   0  0  0  0  0  0  0  0  0  0  0  0
   -2.2561    1.8138   26.3185 C   0  0  0  0  0  0  0  0  0  0  0  0
   -0.9826    2.0266   26.8419 C   0  0  0  0  0  0  0  0  0  0  0  0
   -0.0705    1.1435   27.3623 N   0  0  0  0  0  0  0  0  0  0  0  0
    1.1582    1.7689   27.4701 C   0  0  0  0  0  0  0  0  0  0  0  0
    2.4370    1.0438   27.4138 C   0  0  0  0  0  0  0  0  0  0  0  0
    3.5209    1.6095   26.7202 C   0  0  0  0  0  0  0  0  0  0  0  0
    4.7399    0.9349   26.6110 C   0  0  0  0  0  0  0  0  0  0  0  0
    4.8814   -0.3154   27.1935 C   0  0  0  0  0  0  0  0  0  0  0  0
    6.0475   -0.9662   27.0960 F   0  0  0  0  0  0  0  0  0  0  0  0
    3.8243   -0.9049   27.8723 C   0  0  0  0  0  0  0  0  0  0  0  0
    2.6042   -0.2302   27.9711 C   0  0  0  0  0  0  0  0  0  0  0  0
    0.8697    3.1298   27.5607 C   0  0  0  0  0  0  0  0  0  0  0  0
    1.7389    4.2588   28.0422 C   0  0  0  0  0  0  0  0  0  0  0  0
    2.5602    3.9902   29.3105 C   0  0  0  0  0  0  0  0  0  0  0  0
    1.7126    3.4745   30.4784 C   0  0  0  0  0  0  0  0  0  0  0  0
    1.0348    4.1722   31.1220 O   0  0  0  0  0  0  0  0  0  0  0  0
    1.8958    1.9361   30.5198 N   0  0  0  0  0  0  0  0  0  0  0  0
    1.2126    0.9334   31.2965 C   0  0  0  0  0  0  0  0  0  0  0  0
   -0.2693    0.8659   30.9204 C   0  0  0  0  0  0  0  0  0  0  0  0
   -0.7170   -0.4632   30.5629 N   0  0  0  0  0  0  0  0  0  0  0  0
   -0.5023   -0.9180   29.3073 N   0  0  0  0  0  0  0  0  0  0  0  0
   -0.6226   -2.2403   29.4375 C   0  0  0  0  0  0  0  0  0  0  0  0
   -0.9616   -2.6026   30.7495 C   0  0  0  0  0  0  0  0  0  0  0  0
   -0.9685   -4.1571   31.4134 Cl  0  0  0  0  0  0  0  0  0  0  0  0
   -1.2333   -1.4212   31.3978 C   0  0  0  0  0  0  0  0  0  0  0  0
   -1.8119   -1.1568   32.7333 C   0  0  0  0  0  0  0  0  0  0  0  0
   -0.3779    3.2797   26.8778 C   0  0  0  0  0  0  0  0  0  0  0  0
   -1.0205    4.3589   26.2443 C   0  0  0  0  0  0  0  0  0  0  0  0
  1  2  1  0
  2  3  1  0
  3  4  2  0
  4  5  1  0
  5  6  2  0
  6  7  1  0
  7  8  1  0
  8  9  1  0
  9 10  2  0
 10 11  1  0
 11 12  2  0
 12 13  1  0
 12 14  1  0
 14 15  2  0
  8 16  2  0
 16 17  1  0
 17 18  1  0
 18 19  1  0
 19 20  2  0
 19 21  1  0
 21 22  1  0
 22 23  1  0
 23 24  1  0
 24 25  1  0
 25 26  2  0
 26 27  1  0
 27 28  1  0
 27 29  2  0
 29 30  1  0
 16 31  1  0
 31 32  2  0
 32  3  1  0
 31  6  1  0
 15  9  1  0
 29 24  1  0
M  END
>  <name>  (193) 
COIUMPODBZVOIN-UHFFFAOYSA-N-P59-P44-P59-607686

>  <HIPPO Compound ID>  (193) 
98985

>  <energy_score>  (193) 
-9.891976

>  <HIPPO Pose ID>  (193) 
62755

>  <inspiration_score>  (193) 
None

>  <ref_pdb>  (193) 
7gp2-a

>  <inchikey>  (193) 
COIUMPODBZVOIN-UHFFFAOYSA-N

>  <alias>  (193) 
COIUMPODBZVOIN-UHFFFAOYSA-N-P59-P44-P59-607686

>  <distance_score>  (193) 
1.554624

>  <ref_mols>  (193) 
7goy-a,7gp2-a

>  <smiles>  (193) 
COc1ccc2[nH]c(-c3ccc(F)cc3)c(CCC(=O)NCCn3ncc(Cl)c3C)c2c1

$$$$
OEISOFIFTBYXTD-UHFFFAOYSA-N-P59-P44-P59-607687
     RDKit          3D

 33 36  0  0  0  0  0  0  0  0999 V2000
    2.0336    0.6218   33.3426 C   0  0  0  0  0  0  0  0  0  0  0  0
    2.3193    0.8235   31.8594 C   0  0  0  0  0  0  0  0  0  0  0  0
    1.1564    1.4344   31.0426 C   0  0  2  0  0  0  0  0  0  0  0  0
    0.7904    2.8550   31.5411 C   0  0  0  0  0  0  0  0  0  0  0  0
    0.5520    3.8381   30.4967 N   0  0  0  0  0  0  0  0  0  0  0  0
    1.3920    5.0695   30.0605 C   0  0  0  0  0  0  0  0  0  0  0  0
    2.3633    5.5259   30.5235 O   0  0  0  0  0  0  0  0  0  0  0  0
    0.7433    5.6859   28.8176 C   0  0  0  0  0  0  0  0  0  0  0  0
    1.2750    5.0911   27.5068 C   0  0  0  0  0  0  0  0  0  0  0  0
    0.6576    3.7533   27.2316 C   0  0  0  0  0  0  0  0  0  0  0  0
    1.1992    2.4842   27.4250 C   0  0  0  0  0  0  0  0  0  0  0  0
    2.5877    2.0257   27.6747 C   0  0  0  0  0  0  0  0  0  0  0  0
    3.4827    2.7262   28.4922 C   0  0  0  0  0  0  0  0  0  0  0  0
    4.7923    2.2790   28.7080 C   0  0  0  0  0  0  0  0  0  0  0  0
    5.2428    1.1162   28.0972 C   0  0  0  0  0  0  0  0  0  0  0  0
    4.3815    0.4048   27.2728 C   0  0  0  0  0  0  0  0  0  0  0  0
    3.0731    0.8582   27.0679 C   0  0  0  0  0  0  0  0  0  0  0  0
    0.1248    1.6212   27.3408 N   0  0  0  0  0  0  0  0  0  0  0  0
   -0.9778    2.2612   26.8446 C   0  0  0  0  0  0  0  0  0  0  0  0
   -2.2400    1.7748   26.5232 C   0  0  0  0  0  0  0  0  0  0  0  0
   -3.0448    2.5945   25.7277 C   0  0  0  0  0  0  0  0  0  0  0  0
   -2.5872    3.8301   25.2861 C   0  0  0  0  0  0  0  0  0  0  0  0
   -3.4025    4.6828   23.8078 Br  0  0  0  0  0  0  0  0  0  0  0  0
   -1.4339    4.3920   25.8186 C   0  0  0  0  0  0  0  0  0  0  0  0
   -0.6016    3.5701   26.5956 C   0  0  0  0  0  0  0  0  0  0  0  0
    0.0344    0.4949   30.9497 N   0  0  0  0  0  0  0  0  0  0  0  0
   -0.9246    0.4913   31.9187 N   0  0  0  0  0  0  0  0  0  0  0  0
   -1.6314   -0.6267   31.6879 C   0  0  0  0  0  0  0  0  0  0  0  0
   -2.7202   -1.0462   32.6029 C   0  0  0  0  0  0  0  0  0  0  0  0
   -1.1574   -1.3145   30.5597 C   0  0  0  0  0  0  0  0  0  0  0  0
   -1.6812   -2.7964   29.9817 Cl  0  0  0  0  0  0  0  0  0  0  0  0
   -0.1128   -0.5715   30.1038 C   0  0  0  0  0  0  0  0  0  0  0  0
    0.9454   -0.9365   28.8305 Cl  0  0  0  0  0  0  0  0  0  0  0  0
  1  2  1  0
  3  2  1  1
  3  4  1  0
  4  5  1  0
  5  6  1  0
  6  7  2  0
  6  8  1  0
  8  9  1  0
  9 10  1  0
 10 11  2  0
 11 12  1  0
 12 13  2  0
 13 14  1  0
 14 15  2  0
 15 16  1  0
 16 17  2  0
 11 18  1  0
 18 19  1  0
 19 20  2  0
 20 21  1  0
 21 22  2  0
 22 23  1  0
 22 24  1  0
 24 25  2  0
  3 26  1  0
 26 27  1  0
 27 28  2  0
 28 29  1  0
 28 30  1  0
 30 31  1  0
 30 32  2  0
 32 33  1  0
 25 10  1  0
 32 26  1  0
 17 12  1  0
 25 19  1  0
M  END
>  <name>  (194) 
OEISOFIFTBYXTD-UHFFFAOYSA-N-P59-P44-P59-607687

>  <HIPPO Compound ID>  (194) 
99025

>  <energy_score>  (194) 
-22.676693

>  <HIPPO Pose ID>  (194) 
62835

>  <inspiration_score>  (194) 
None

>  <ref_pdb>  (194) 
7gp2-a

>  <inchikey>  (194) 
OEISOFIFTBYXTD-UHFFFAOYSA-N

>  <alias>  (194) 
OEISOFIFTBYXTD-UHFFFAOYSA-N-P59-P44-P59-607687

>  <distance_score>  (194) 
1.86469

>  <ref_mols>  (194) 
7goy-a,7gp2-a

>  <smiles>  (194) 
CCC(CNC(=O)CCc1c(-c2ccccc2)[nH]c2ccc(Br)cc12)n1nc(C)c(Cl)c1Cl

$$$$
PUNCCCBRYBZGOX-UHFFFAOYSA-N-P59-P44-P59-607687
     RDKit          3D

 33 36  0  0  0  0  0  0  0  0999 V2000
   -3.0778   -1.5874   32.1866 C   0  0  0  0  0  0  0  0  0  0  0  0
   -1.8492   -0.8992   31.7298 C   0  0  0  0  0  0  0  0  0  0  0  0
   -1.4636    0.2313   32.3394 N   0  0  0  0  0  0  0  0  0  0  0  0
   -0.2380    0.4866   31.8282 N   0  0  0  0  0  0  0  0  0  0  0  0
    0.5820    1.5267   32.4668 C   0  0  1  0  0  0  0  0  0  0  0  0
    1.0881    1.0364   33.8259 C   0  0  0  0  0  0  0  0  0  0  0  0
    1.7608    1.9351   31.5790 C   0  0  0  0  0  0  0  0  0  0  0  0
    2.8104    1.4252   31.6723 O   0  0  0  0  0  0  0  0  0  0  0  0
    1.2400    2.9967   30.5611 N   0  0  0  0  0  0  0  0  0  0  0  0
    1.8292    3.5290   29.4840 N   0  0  0  0  0  0  0  0  0  0  0  0
    1.4450    4.7742   28.6351 C   0  0  0  0  0  0  0  0  0  0  0  0
    0.6024    5.5667   28.7934 O   0  0  0  0  0  0  0  0  0  0  0  0
    2.3512    4.7395   27.4065 C   0  0  0  0  0  0  0  0  0  0  0  0
    1.8613    3.8294   26.2662 C   0  0  0  0  0  0  0  0  0  0  0  0
    0.7192    2.9036   26.5975 C   0  0  0  0  0  0  0  0  0  0  0  0
    0.7334    1.6340   27.1931 C   0  0  0  0  0  0  0  0  0  0  0  0
    1.8186    0.6765   27.5341 C   0  0  0  0  0  0  0  0  0  0  0  0
    3.1729    1.0327   27.5765 C   0  0  0  0  0  0  0  0  0  0  0  0
    4.1709    0.1077   27.9128 C   0  0  0  0  0  0  0  0  0  0  0  0
    3.8396   -1.2109   28.1940 C   0  0  0  0  0  0  0  0  0  0  0  0
    2.5128   -1.6064   28.1159 C   0  0  0  0  0  0  0  0  0  0  0  0
    1.5222   -0.6753   27.7763 C   0  0  0  0  0  0  0  0  0  0  0  0
   -0.5955    1.3462   27.4595 N   0  0  0  0  0  0  0  0  0  0  0  0
   -1.4226    2.1974   26.7764 C   0  0  0  0  0  0  0  0  0  0  0  0
   -2.7980    2.1444   26.5742 C   0  0  0  0  0  0  0  0  0  0  0  0
   -3.3538    3.0386   25.6552 C   0  0  0  0  0  0  0  0  0  0  0  0
   -2.5722    4.0077   25.0412 C   0  0  0  0  0  0  0  0  0  0  0  0
   -3.2288    5.0007   23.7970 Cl  0  0  0  0  0  0  0  0  0  0  0  0
   -1.2263    4.1399   25.3655 C   0  0  0  0  0  0  0  0  0  0  0  0
   -0.6297    3.1764   26.2048 C   0  0  0  0  0  0  0  0  0  0  0  0
    0.1002   -0.3874   30.8355 C   0  0  0  0  0  0  0  0  0  0  0  0
   -0.9242   -1.2954   30.7423 C   0  0  0  0  0  0  0  0  0  0  0  0
   -1.0032   -2.6630   29.7530 Cl  0  0  0  0  0  0  0  0  0  0  0  0
  1  2  1  0
  2  3  2  0
  3  4  1  0
  4  5  1  0
  5  6  1  1
  5  7  1  0
  7  8  2  0
  7  9  1  0
  9 10  1  0
 10 11  1  0
 11 12  2  0
 11 13  1  0
 13 14  1  0
 14 15  1  0
 15 16  2  0
 16 17  1  0
 17 18  2  0
 18 19  1  0
 19 20  2  0
 20 21  1  0
 21 22  2  0
 16 23  1  0
 23 24  1  0
 24 25  2  0
 25 26  1  0
 26 27  2  0
 27 28  1  0
 27 29  1  0
 29 30  2  0
  4 31  1  0
 31 32  2  0
 32 33  1  0
 32  2  1  0
 30 15  1  0
 22 17  1  0
 30 24  1  0
M  END
>  <name>  (195) 
PUNCCCBRYBZGOX-UHFFFAOYSA-N-P59-P44-P59-607687

>  <HIPPO Compound ID>  (195) 
99059

>  <energy_score>  (195) 
-17.926708

>  <HIPPO Pose ID>  (195) 
62903

>  <inspiration_score>  (195) 
None

>  <ref_pdb>  (195) 
7gp2-a

>  <inchikey>  (195) 
PUNCCCBRYBZGOX-UHFFFAOYSA-N

>  <alias>  (195) 
PUNCCCBRYBZGOX-UHFFFAOYSA-N-P59-P44-P59-607687

>  <distance_score>  (195) 
1.760664

>  <ref_mols>  (195) 
7goy-a,7gp2-a

>  <smiles>  (195) 
Cc1nn(C(C)C(=O)NNC(=O)CCc2c(-c3ccccc3)[nH]c3ccc(Cl)cc23)cc1Cl

$$$$
SDJTVWGMOAUJCQ-UHFFFAOYSA-N-P59-P44-P59-607687
     RDKit          3D

 33 37  0  0  0  0  0  0  0  0999 V2000
   -6.5796   -0.5483   35.4771 C   0  0  0  0  0  0  0  0  0  0  0  0
   -5.2611   -0.9583   35.0941 N   0  0  0  0  0  0  0  0  0  0  0  0
   -4.3963   -0.5541   33.8728 C   0  0  0  0  0  0  0  0  0  0  0  0
   -4.6546    0.1155   32.9506 O   0  0  0  0  0  0  0  0  0  0  0  0
   -3.0173   -1.2512   34.0108 C   0  0  2  0  0  0  0  0  0  0  0  0
   -2.2289   -0.6556   35.1785 C   0  0  0  0  0  0  0  0  0  0  0  0
   -2.2085   -1.5134   36.3520 N   0  0  0  0  0  0  0  0  0  0  0  0
   -1.1301   -2.1977   36.8358 C   0  0  0  0  0  0  0  0  0  0  0  0
   -1.5290   -2.7315   38.0348 C   0  0  0  0  0  0  0  0  0  0  0  0
   -0.6280   -3.6649   39.1165 Cl  0  0  0  0  0  0  0  0  0  0  0  0
   -2.8673   -2.3290   38.1838 C   0  0  0  0  0  0  0  0  0  0  0  0
   -3.3078   -1.6230   37.1324 N   0  0  0  0  0  0  0  0  0  0  0  0
   -2.2759   -1.0656   32.7678 N   0  0  0  0  0  0  0  0  0  0  0  0
   -1.9750   -2.0565   31.6206 C   0  0  0  0  0  0  0  0  0  0  0  0
   -2.2073   -3.1983   31.5254 O   0  0  0  0  0  0  0  0  0  0  0  0
   -1.1438   -1.3016   30.5059 C   0  0  1  0  0  0  0  0  0  0  0  0
   -1.9892   -0.4381   29.5340 C   0  0  0  0  0  0  0  0  0  0  0  0
   -1.1183    0.4637   28.6887 C   0  0  0  0  0  0  0  0  0  0  0  0
    0.2588    0.5071   28.8508 C   0  0  0  0  0  0  0  0  0  0  0  0
    0.7459    1.5133   28.0685 N   0  0  0  0  0  0  0  0  0  0  0  0
   -0.2779    2.1513   27.4172 C   0  0  0  0  0  0  0  0  0  0  0  0
   -0.2386    3.2808   26.5888 C   0  0  0  0  0  0  0  0  0  0  0  0
   -1.4249    3.6901   25.9814 C   0  0  0  0  0  0  0  0  0  0  0  0
   -2.6025    2.9919   26.1949 C   0  0  0  0  0  0  0  0  0  0  0  0
   -2.6272    1.8861   27.0574 C   0  0  0  0  0  0  0  0  0  0  0  0
   -1.4533    1.4543   27.7064 C   0  0  0  0  0  0  0  0  0  0  0  0
    1.0658   -0.3264   29.8103 C   0  0  1  0  0  0  0  0  0  0  0  0
    1.6307   -1.5660   29.1086 C   0  0  0  0  0  0  0  0  0  0  0  0
    2.1870    0.4370   30.5125 C   0  0  0  0  0  0  0  0  0  0  0  0
    1.4549    1.2691   31.5427 C   0  0  0  0  0  0  0  0  0  0  0  0
    0.1934    0.4792   31.7819 C   0  0  0  0  0  0  0  0  0  0  0  0
   -0.6479    0.8143   32.6029 O   0  0  0  0  0  0  0  0  0  0  0  0
    0.1322   -0.6140   30.9028 N   0  0  0  0  0  0  0  0  0  0  0  0
  1  2  1  0
  2  3  1  0
  3  4  2  0
  3  5  1  0
  5  6  1  1
  6  7  1  0
  7  8  1  0
  8  9  2  0
  9 10  1  0
  9 11  1  0
 11 12  2  0
  5 13  1  0
 13 14  1  0
 14 15  2  0
 16 14  1  1
 16 17  1  0
 17 18  1  0
 18 19  2  0
 19 20  1  0
 20 21  1  0
 21 22  2  0
 22 23  1  0
 23 24  2  0
 24 25  1  0
 25 26  2  0
 19 27  1  0
 27 28  1  6
 27 29  1  0
 29 30  1  0
 30 31  1  0
 31 32  2  0
 31 33  1  0
 12  7  1  0
 33 16  1  0
 26 18  1  0
 33 27  1  0
 26 21  1  0
M  END
>  <name>  (196) 
SDJTVWGMOAUJCQ-UHFFFAOYSA-N-P59-P44-P59-607687

>  <HIPPO Compound ID>  (196) 
99065

>  <energy_score>  (196) 
-32.515018

>  <HIPPO Pose ID>  (196) 
62915

>  <inspiration_score>  (196) 
None

>  <ref_pdb>  (196) 
7gp2-a

>  <inchikey>  (196) 
SDJTVWGMOAUJCQ-UHFFFAOYSA-N

>  <alias>  (196) 
SDJTVWGMOAUJCQ-UHFFFAOYSA-N-P59-P44-P59-607687

>  <distance_score>  (196) 
1.110564

>  <ref_mols>  (196) 
7goy-a,7gp2-a

>  <smiles>  (196) 
CNC(=O)C(Cn1cc(Cl)cn1)NC(=O)C1Cc2c([nH]c3ccccc23)C2(C)CCC(=O)N12

$$$$
MMZODOPHRZOKLG-UHFFFAOYSA-N-P59-P44-P59-607687
     RDKit          3D

 33 36  0  0  0  0  0  0  0  0999 V2000
   -2.6405   -1.5080   31.7888 C   0  0  0  0  0  0  0  0  0  0  0  0
   -1.3890   -1.1633   31.0745 C   0  0  0  0  0  0  0  0  0  0  0  0
   -0.2858   -0.8641   31.7723 N   0  0  0  0  0  0  0  0  0  0  0  0
    0.6423   -0.5710   30.8350 N   0  0  0  0  0  0  0  0  0  0  0  0
    1.8799    0.0874   31.2506 C   0  0  0  0  0  0  0  0  0  0  0  0
    1.6757    1.5607   30.9530 C   0  0  0  0  0  0  0  0  0  0  0  0
    1.0772    2.2642   31.6717 O   0  0  0  0  0  0  0  0  0  0  0  0
    2.2972    1.8418   29.5489 N   0  0  0  0  0  0  0  0  0  0  0  0
    2.2287    2.9250   28.7736 N   0  0  0  0  0  0  0  0  0  0  0  0
    2.7602    4.3708   29.0071 C   0  0  0  0  0  0  0  0  0  0  0  0
    3.4043    4.8086   29.8778 O   0  0  0  0  0  0  0  0  0  0  0  0
    2.1436    5.1852   27.8404 C   0  0  1  0  0  0  0  0  0  0  0  0
    0.6271    5.4026   28.1026 C   0  0  0  0  0  0  0  0  0  0  0  0
   -0.2856    4.2671   27.6663 C   0  0  0  0  0  0  0  0  0  0  0  0
   -0.6638    3.1644   28.4125 C   0  0  0  0  0  0  0  0  0  0  0  0
   -1.5694    2.4327   27.7077 N   0  0  0  0  0  0  0  0  0  0  0  0
   -1.8222    3.0665   26.5218 C   0  0  0  0  0  0  0  0  0  0  0  0
   -2.7518    2.7649   25.5344 C   0  0  0  0  0  0  0  0  0  0  0  0
   -2.8255    3.6098   24.4192 C   0  0  0  0  0  0  0  0  0  0  0  0
   -1.9984    4.7166   24.2970 C   0  0  0  0  0  0  0  0  0  0  0  0
   -1.0945    5.0236   25.3117 C   0  0  0  0  0  0  0  0  0  0  0  0
   -1.0089    4.1927   26.4454 C   0  0  0  0  0  0  0  0  0  0  0  0
    2.8873    6.4277   27.5713 N   0  0  0  0  0  0  0  0  0  0  0  0
    3.7272    6.6069   26.4771 C   0  0  0  0  0  0  0  0  0  0  0  0
    4.0229    5.5584   25.4599 C   0  0  0  0  0  0  0  0  0  0  0  0
    4.2087    7.8993   26.5231 C   0  0  0  0  0  0  0  0  0  0  0  0
    3.6633    8.5211   27.6600 C   0  0  0  0  0  0  0  0  0  0  0  0
    2.8524    7.6051   28.3022 C   0  0  0  0  0  0  0  0  0  0  0  0
    2.0724    7.8184   29.5541 C   0  0  0  0  0  0  0  0  0  0  0  0
    0.1911   -0.7970   29.5551 C   0  0  0  0  0  0  0  0  0  0  0  0
    0.9750   -0.6919   28.3029 C   0  0  0  0  0  0  0  0  0  0  0  0
   -1.1454   -1.0823   29.6896 C   0  0  0  0  0  0  0  0  0  0  0  0
   -2.2156   -1.2673   28.4047 Cl  0  0  0  0  0  0  0  0  0  0  0  0
  1  2  1  0
  2  3  2  0
  3  4  1  0
  4  5  1  0
  5  6  1  0
  6  7  2  0
  6  8  1  0
  8  9  1  0
  9 10  1  0
 10 11  2  0
 10 12  1  0
 12 13  1  1
 13 14  1  0
 14 15  2  0
 15 16  1  0
 16 17  1  0
 17 18  2  0
 18 19  1  0
 19 20  2  0
 20 21  1  0
 21 22  2  0
 12 23  1  0
 23 24  1  0
 24 25  1  0
 24 26  2  0
 26 27  1  0
 27 28  2  0
 28 29  1  0
  4 30  1  0
 30 31  1  0
 30 32  2  0
 32 33  1  0
 32  2  1  0
 22 14  1  0
 28 23  1  0
 22 17  1  0
M  END
>  <name>  (197) 
MMZODOPHRZOKLG-UHFFFAOYSA-N-P59-P44-P59-607687

>  <HIPPO Compound ID>  (197) 
99081

>  <energy_score>  (197) 
-2.949307

>  <HIPPO Pose ID>  (197) 
62947

>  <inspiration_score>  (197) 
None

>  <ref_pdb>  (197) 
7gp2-a

>  <inchikey>  (197) 
MMZODOPHRZOKLG-UHFFFAOYSA-N

>  <alias>  (197) 
MMZODOPHRZOKLG-UHFFFAOYSA-N-P59-P44-P59-607687

>  <distance_score>  (197) 
1.778036

>  <ref_mols>  (197) 
7goy-a,7gp2-a

>  <smiles>  (197) 
Cc1nn(CC(=O)NNC(=O)C(Cc2c[nH]c3ccccc23)n2c(C)ccc2C)c(C)c1Cl

$$$$
JOQMNMVBHJQTFE-UHFFFAOYSA-N-P59-P44-P59-607687
     RDKit          3D

 33 35  0  0  0  0  0  0  0  0999 V2000
   -6.5280   -0.5906   35.3764 C   0  0  0  0  0  0  0  0  0  0  0  0
   -5.1759   -0.9370   35.0527 N   0  0  0  0  0  0  0  0  0  0  0  0
   -4.3127   -0.5751   33.8175 C   0  0  0  0  0  0  0  0  0  0  0  0
   -4.5444    0.1238   32.9111 O   0  0  0  0  0  0  0  0  0  0  0  0
   -2.9531   -1.3092   33.9466 C   0  0  2  0  0  0  0  0  0  0  0  0
   -2.1171   -0.7032   35.0758 C   0  0  0  0  0  0  0  0  0  0  0  0
   -2.1156   -1.5193   36.2801 N   0  0  0  0  0  0  0  0  0  0  0  0
   -1.0542   -2.2098   36.7909 C   0  0  0  0  0  0  0  0  0  0  0  0
   -1.4760   -2.7126   37.9956 C   0  0  0  0  0  0  0  0  0  0  0  0
   -0.6055   -3.6410   39.1059 Cl  0  0  0  0  0  0  0  0  0  0  0  0
   -2.8087   -2.2848   38.1210 C   0  0  0  0  0  0  0  0  0  0  0  0
   -3.2270   -1.5971   37.0487 N   0  0  0  0  0  0  0  0  0  0  0  0
   -2.2243   -1.2385   32.6800 N   0  0  0  0  0  0  0  0  0  0  0  0
   -1.8392   -2.3595   31.6722 C   0  0  0  0  0  0  0  0  0  0  0  0
   -2.1129   -3.4976   31.6630 O   0  0  0  0  0  0  0  0  0  0  0  0
   -0.8528   -1.7462   30.6152 C   0  0  1  0  0  0  0  0  0  0  0  0
   -1.5433   -0.7744   29.6397 C   0  0  0  0  0  0  0  0  0  0  0  0
   -0.6948    0.2067   28.8553 C   0  0  0  0  0  0  0  0  0  0  0  0
    0.6572    0.4760   28.9388 C   0  0  0  0  0  0  0  0  0  0  0  0
    0.9082    1.6596   28.2947 N   0  0  0  0  0  0  0  0  0  0  0  0
   -0.2106    2.0988   27.6457 C   0  0  0  0  0  0  0  0  0  0  0  0
   -0.4203    3.2495   26.8742 C   0  0  0  0  0  0  0  0  0  0  0  0
   -1.6606    3.3944   26.2499 C   0  0  0  0  0  0  0  0  0  0  0  0
   -2.6340    2.4120   26.3752 C   0  0  0  0  0  0  0  0  0  0  0  0
   -2.4021    1.2896   27.1754 C   0  0  0  0  0  0  0  0  0  0  0  0
   -1.1916    1.1369   27.8692 C   0  0  0  0  0  0  0  0  0  0  0  0
    0.3125   -1.2409   31.3480 N   0  0  0  0  0  0  0  0  0  0  0  0
    0.4747    0.0212   32.2352 C   0  0  0  0  0  0  0  0  0  0  0  0
   -0.3142    0.8089   32.5804 O   0  0  0  0  0  0  0  0  0  0  0  0
    1.9473    0.0469   32.6528 C   0  0  0  0  0  0  0  0  0  0  0  0
    2.3457    1.3381   33.3856 C   0  0  0  0  0  0  0  0  0  0  0  0
    3.6984    1.1538   34.0758 C   0  0  0  0  0  0  0  0  0  0  0  0
    2.4150    2.5256   32.4212 C   0  0  0  0  0  0  0  0  0  0  0  0
  1  2  1  0
  2  3  1  0
  3  4  2  0
  3  5  1  0
  5  6  1  1
  6  7  1  0
  7  8  1  0
  8  9  2  0
  9 10  1  0
  9 11  1  0
 11 12  2  0
  5 13  1  0
 13 14  1  0
 14 15  2  0
 14 16  1  0
 16 17  1  1
 17 18  1  0
 18 19  2  0
 19 20  1  0
 20 21  1  0
 21 22  2  0
 22 23  1  0
 23 24  2  0
 24 25  1  0
 25 26  2  0
 16 27  1  0
 27 28  1  0
 28 29  2  0
 28 30  1  0
 30 31  1  0
 31 32  1  0
 31 33  1  0
 12  7  1  0
 26 18  1  0
 26 21  1  0
M  END
>  <name>  (198) 
JOQMNMVBHJQTFE-UHFFFAOYSA-N-P59-P44-P59-607687

>  <HIPPO Compound ID>  (198) 
99082

>  <energy_score>  (198) 
-39.748705

>  <HIPPO Pose ID>  (198) 
62949

>  <inspiration_score>  (198) 
None

>  <ref_pdb>  (198) 
7gp2-a

>  <inchikey>  (198) 
JOQMNMVBHJQTFE-UHFFFAOYSA-N

>  <alias>  (198) 
JOQMNMVBHJQTFE-UHFFFAOYSA-N-P59-P44-P59-607687

>  <distance_score>  (198) 
1.128127

>  <ref_mols>  (198) 
7goy-a,7gp2-a

>  <smiles>  (198) 
CNC(=O)C(Cn1cc(Cl)cn1)NC(=O)C(Cc1c[nH]c2ccccc12)NC(=O)CC(C)C

$$$$
ADGABDSXZQAEPW-UHFFFAOYSA-N-P59-P44-P59-607687
     RDKit          3D

 33 36  0  0  0  0  0  0  0  0999 V2000
   -3.8765    3.0140   26.0302 O   0  0  0  0  0  0  0  0  0  0  0  0
   -2.7203    2.8734   25.9473 C   0  0  0  0  0  0  0  0  0  0  0  0
   -1.7720    1.8750   26.6722 N   0  0  0  0  0  0  0  0  0  0  0  0
   -2.0414    0.9196   27.7082 C   0  0  0  0  0  0  0  0  0  0  0  0
   -0.8356    0.7768   28.6328 C   0  0  0  0  0  0  0  0  0  0  0  0
   -0.9836   -0.3123   29.5663 N   0  0  0  0  0  0  0  0  0  0  0  0
   -0.3916   -1.5309   29.4575 C   0  0  0  0  0  0  0  0  0  0  0  0
   -0.8445   -2.2585   30.5252 C   0  0  0  0  0  0  0  0  0  0  0  0
   -0.4259   -3.8515   30.9204 Cl  0  0  0  0  0  0  0  0  0  0  0  0
   -1.7251   -1.4027   31.2280 C   0  0  0  0  0  0  0  0  0  0  0  0
   -2.5334   -1.7761   32.4269 C   0  0  0  0  0  0  0  0  0  0  0  0
   -3.3375   -0.7717   32.8738 F   0  0  0  0  0  0  0  0  0  0  0  0
   -3.3461   -2.8327   32.1451 F   0  0  0  0  0  0  0  0  0  0  0  0
   -1.7489   -2.1400   33.4737 F   0  0  0  0  0  0  0  0  0  0  0  0
   -1.7654   -0.1821   30.6542 N   0  0  0  0  0  0  0  0  0  0  0  0
   -1.7933    3.8049   25.0974 C   0  0  2  0  0  0  0  0  0  0  0  0
   -1.0167    4.7851   25.9818 C   0  0  0  0  0  0  0  0  0  0  0  0
    0.1307    4.1149   26.6883 C   0  0  0  0  0  0  0  0  0  0  0  0
    1.0158    3.2083   26.1340 C   0  0  0  0  0  0  0  0  0  0  0  0
    1.7866    2.6878   27.1356 N   0  0  0  0  0  0  0  0  0  0  0  0
    1.5571    3.3703   28.3018 C   0  0  0  0  0  0  0  0  0  0  0  0
    2.1971    3.2581   29.5426 C   0  0  0  0  0  0  0  0  0  0  0  0
    1.8147    4.1458   30.5485 C   0  0  0  0  0  0  0  0  0  0  0  0
    0.8372    5.1057   30.3116 C   0  0  0  0  0  0  0  0  0  0  0  0
    0.1991    5.1911   29.0664 C   0  0  0  0  0  0  0  0  0  0  0  0
    0.5524    4.3018   28.0392 C   0  0  0  0  0  0  0  0  0  0  0  0
   -2.5669    4.4084   24.0343 N   0  0  0  0  0  0  0  0  0  0  0  0
   -2.9422    5.6949   23.8572 C   0  0  0  0  0  0  0  0  0  0  0  0
   -2.6481    6.6975   24.4796 O   0  0  0  0  0  0  0  0  0  0  0  0
   -3.7224    5.7421   22.6160 C   0  0  0  0  0  0  0  0  0  0  0  0
   -3.6504    4.5386   22.0495 C   0  0  0  0  0  0  0  0  0  0  0  0
   -2.8113    3.7013   22.9088 C   0  0  0  0  0  0  0  0  0  0  0  0
   -2.3309    2.6158   22.6186 O   0  0  0  0  0  0  0  0  0  0  0  0
  1  2  2  0
  2  3  1  0
  3  4  1  0
  4  5  1  0
  5  6  1  0
  6  7  1  0
  7  8  2  0
  8  9  1  0
  8 10  1  0
 10 11  1  0
 11 12  1  0
 11 13  1  0
 11 14  1  0
 10 15  2  0
  2 16  1  0
 16 17  1  1
 17 18  1  0
 18 19  2  0
 19 20  1  0
 20 21  1  0
 21 22  2  0
 22 23  1  0
 23 24  2  0
 24 25  1  0
 25 26  2  0
 16 27  1  0
 27 28  1  0
 28 29  2  0
 28 30  1  0
 30 31  2  0
 31 32  1  0
 32 33  2  0
 15  6  1  0
 26 18  1  0
 32 27  1  0
 26 21  1  0
M  END
>  <name>  (199) 
ADGABDSXZQAEPW-UHFFFAOYSA-N-P59-P44-P59-607687

>  <HIPPO Compound ID>  (199) 
99096

>  <energy_score>  (199) 
-10.522086

>  <HIPPO Pose ID>  (199) 
62977

>  <inspiration_score>  (199) 
None

>  <ref_pdb>  (199) 
7gp2-a

>  <inchikey>  (199) 
ADGABDSXZQAEPW-UHFFFAOYSA-N

>  <alias>  (199) 
ADGABDSXZQAEPW-UHFFFAOYSA-N-P59-P44-P59-607687

>  <distance_score>  (199) 
1.907639

>  <ref_mols>  (199) 
7goy-a,7gp2-a

>  <smiles>  (199) 
O=C(NCCn1cc(Cl)c(C(F)(F)F)n1)C(Cc1c[nH]c2ccccc12)N1C(=O)C=CC1=O

$$$$
JLHFXXZRSGILAA-UHFFFAOYSA-N-P44-P44-P59-607687
     RDKit          3D

 33 36  0  0  0  0  0  0  0  0999 V2000
   -3.2863    4.5776   24.2190 C   0  0  0  0  0  0  0  0  0  0  0  0
   -2.5051    3.9612   25.3406 C   0  0  0  0  0  0  0  0  0  0  0  0
   -2.7886    2.6634   25.7707 C   0  0  0  0  0  0  0  0  0  0  0  0
   -1.9420    1.9627   26.6277 C   0  0  0  0  0  0  0  0  0  0  0  0
   -0.7916    2.6289   27.0413 C   0  0  0  0  0  0  0  0  0  0  0  0
    0.2924    2.1882   27.7517 N   0  0  0  0  0  0  0  0  0  0  0  0
    1.2771    3.1486   27.7602 C   0  0  0  0  0  0  0  0  0  0  0  0
    2.6535    2.8583   28.0856 C   0  0  0  0  0  0  0  0  0  0  0  0
    3.7722    3.5326   27.6296 C   0  0  0  0  0  0  0  0  0  0  0  0
    4.9943    2.9915   28.1260 C   0  0  0  0  0  0  0  0  0  0  0  0
    4.7784    1.8977   28.9294 C   0  0  0  0  0  0  0  0  0  0  0  0
    3.1189    1.5260   29.0609 S   0  0  0  0  0  0  0  0  0  0  0  0
    0.6386    4.3488   27.4569 C   0  0  0  0  0  0  0  0  0  0  0  0
    1.1167    5.7553   27.7298 C   0  0  0  0  0  0  0  0  0  0  0  0
    0.8494    6.2287   29.1789 C   0  0  0  0  0  0  0  0  0  0  0  0
    1.5562    5.2953   30.1572 C   0  0  0  0  0  0  0  0  0  0  0  0
    2.6728    5.4364   30.4756 O   0  0  0  0  0  0  0  0  0  0  0  0
    0.5454    4.1602   30.4977 N   0  0  0  0  0  0  0  0  0  0  0  0
    0.7205    3.0080   31.1695 N   0  0  0  0  0  0  0  0  0  0  0  0
    0.2321    2.5785   32.5835 C   0  0  0  0  0  0  0  0  0  0  0  0
   -0.3298    3.1882   33.4088 O   0  0  0  0  0  0  0  0  0  0  0  0
    0.5721    1.0817   32.7010 C   0  0  1  0  0  0  0  0  0  0  0  0
    0.4691    0.5936   34.1449 C   0  0  0  0  0  0  0  0  0  0  0  0
   -0.1645    0.2864   31.7025 N   0  0  0  0  0  0  0  0  0  0  0  0
    0.3163    0.3095   30.4225 N   0  0  0  0  0  0  0  0  0  0  0  0
   -0.2316   -0.7617   29.8348 C   0  0  0  0  0  0  0  0  0  0  0  0
    0.1294   -1.1719   28.4514 C   0  0  0  0  0  0  0  0  0  0  0  0
   -1.1251   -1.3940   30.7073 C   0  0  0  0  0  0  0  0  0  0  0  0
   -1.9101   -2.8473   30.4376 Cl  0  0  0  0  0  0  0  0  0  0  0  0
   -1.1953   -0.6161   31.8390 C   0  0  0  0  0  0  0  0  0  0  0  0
   -2.1014   -0.7678   33.0014 C   0  0  0  0  0  0  0  0  0  0  0  0
   -0.5461    3.9723   26.7555 C   0  0  0  0  0  0  0  0  0  0  0  0
   -1.4238    4.6518   25.8957 C   0  0  0  0  0  0  0  0  0  0  0  0
  1  2  1  0
  2  3  2  0
  3  4  1  0
  4  5  2  0
  5  6  1  0
  6  7  1  0
  7  8  1  0
  8  9  2  0
  9 10  1  0
 10 11  2  0
 11 12  1  0
  7 13  2  0
 13 14  1  0
 14 15  1  0
 15 16  1  0
 16 17  2  0
 16 18  1  0
 18 19  1  0
 19 20  1  0
 20 21  2  0
 20 22  1  0
 22 23  1  1
 22 24  1  0
 24 25  1  0
 25 26  2  0
 26 27  1  0
 26 28  1  0
 28 29  1  0
 28 30  2  0
 30 31  1  0
 13 32  1  0
 32 33  2  0
 33  2  1  0
 32  5  1  0
 12  8  1  0
 30 24  1  0
M  END
>  <name>  (200) 
JLHFXXZRSGILAA-UHFFFAOYSA-N-P44-P44-P59-607687

>  <HIPPO Compound ID>  (200) 
99105

>  <energy_score>  (200) 
-4.005638

>  <HIPPO Pose ID>  (200) 
62994

>  <inspiration_score>  (200) 
None

>  <ref_pdb>  (200) 
7gp2-a

>  <inchikey>  (200) 
JLHFXXZRSGILAA-UHFFFAOYSA-N

>  <alias>  (200) 
JLHFXXZRSGILAA-UHFFFAOYSA-N-P44-P44-P59-607687

>  <distance_score>  (200) 
1.655558

>  <ref_mols>  (200) 
7goy-a,7gp2-a

>  <smiles>  (200) 
Cc1ccc2[nH]c(-c3cccs3)c(CCC(=O)NNC(=O)C(C)n3nc(C)c(Cl)c3C)c2c1

$$$$
NQJDAXRVOLNACA-UHFFFAOYSA-N-P44-P44-P59-607687
     RDKit          3D

 33 36  0  0  0  0  0  0  0  0999 V2000
   -3.0200    5.0487   24.3069 C   0  0  0  0  0  0  0  0  0  0  0  0
   -2.3539    4.1569   25.3124 C   0  0  0  0  0  0  0  0  0  0  0  0
   -2.8256    2.8632   25.5338 C   0  0  0  0  0  0  0  0  0  0  0  0
   -2.0779    1.9047   26.2191 C   0  0  0  0  0  0  0  0  0  0  0  0
   -0.8282    2.3128   26.6754 C   0  0  0  0  0  0  0  0  0  0  0  0
    0.2336    1.5872   27.1446 N   0  0  0  0  0  0  0  0  0  0  0  0
    1.3134    2.4112   27.4083 C   0  0  0  0  0  0  0  0  0  0  0  0
    2.6498    1.9022   27.6494 C   0  0  0  0  0  0  0  0  0  0  0  0
    3.6846    2.4649   28.3754 C   0  0  0  0  0  0  0  0  0  0  0  0
    4.8748    1.6773   28.3745 C   0  0  0  0  0  0  0  0  0  0  0  0
    4.7303    0.5334   27.6292 C   0  0  0  0  0  0  0  0  0  0  0  0
    3.1738    0.4163   26.9466 S   0  0  0  0  0  0  0  0  0  0  0  0
    0.8151    3.7076   27.3754 C   0  0  0  0  0  0  0  0  0  0  0  0
    1.4257    4.9749   27.8858 C   0  0  0  0  0  0  0  0  0  0  0  0
    0.8992    5.3002   29.2888 C   0  0  0  0  0  0  0  0  0  0  0  0
    1.6692    4.5789   30.3933 C   0  0  0  0  0  0  0  0  0  0  0  0
    2.5617    5.0976   30.9413 O   0  0  0  0  0  0  0  0  0  0  0  0
    1.0944    3.1430   30.5421 N   0  0  0  0  0  0  0  0  0  0  0  0
    1.5618    2.0203   31.3285 C   0  0  0  0  0  0  0  0  0  0  0  0
    0.5087    1.2626   32.1549 C   0  0  2  0  0  0  0  0  0  0  0  0
    1.1313    0.5432   33.4019 C   0  0  0  0  0  0  0  0  0  0  0  0
    1.5852    1.5450   34.4716 C   0  0  0  0  0  0  0  0  0  0  0  0
    2.2847   -0.4019   33.0536 C   0  0  0  0  0  0  0  0  0  0  0  0
   -0.4050    0.3327   31.4612 N   0  0  0  0  0  0  0  0  0  0  0  0
   -1.5913    0.1260   32.0913 N   0  0  0  0  0  0  0  0  0  0  0  0
   -2.0128   -1.0597   31.6426 C   0  0  0  0  0  0  0  0  0  0  0  0
   -3.1678   -1.7146   32.2929 C   0  0  0  0  0  0  0  0  0  0  0  0
   -1.1874   -1.5301   30.6113 C   0  0  0  0  0  0  0  0  0  0  0  0
   -1.2856   -3.0083   29.8057 Cl  0  0  0  0  0  0  0  0  0  0  0  0
   -0.2024   -0.5831   30.4529 C   0  0  0  0  0  0  0  0  0  0  0  0
    0.9101   -0.6143   29.4897 C   0  0  0  0  0  0  0  0  0  0  0  0
   -0.4102    3.6373   26.6469 C   0  0  0  0  0  0  0  0  0  0  0  0
   -1.1930    4.5825   25.9622 C   0  0  0  0  0  0  0  0  0  0  0  0
  1  2  1  0
  2  3  2  0
  3  4  1  0
  4  5  2  0
  5  6  1  0
  6  7  1  0
  7  8  1  0
  8  9  2  0
  9 10  1  0
 10 11  2  0
 11 12  1  0
  7 13  2  0
 13 14  1  0
 14 15  1  0
 15 16  1  0
 16 17  2  0
 16 18  1  0
 18 19  1  0
 20 19  1  6
 20 21  1  0
 21 22  1  0
 21 23  1  0
 20 24  1  0
 24 25  1  0
 25 26  2  0
 26 27  1  0
 26 28  1  0
 28 29  1  0
 28 30  2  0
 30 31  1  0
 13 32  1  0
 32 33  2  0
 33  2  1  0
 32  5  1  0
 12  8  1  0
 30 24  1  0
M  END
>  <name>  (201) 
NQJDAXRVOLNACA-UHFFFAOYSA-N-P44-P44-P59-607687

>  <HIPPO Compound ID>  (201) 
99106

>  <energy_score>  (201) 
-26.946491

>  <HIPPO Pose ID>  (201) 
62996

>  <inspiration_score>  (201) 
None

>  <ref_pdb>  (201) 
7gp2-a

>  <inchikey>  (201) 
NQJDAXRVOLNACA-UHFFFAOYSA-N

>  <alias>  (201) 
NQJDAXRVOLNACA-UHFFFAOYSA-N-P44-P44-P59-607687

>  <distance_score>  (201) 
1.673586

>  <ref_mols>  (201) 
7goy-a,7gp2-a

>  <smiles>  (201) 
Cc1ccc2[nH]c(-c3cccs3)c(CCC(=O)NCC(C(C)C)n3nc(C)c(Cl)c3C)c2c1

$$$$
GWNJRVRCIMBOSP-UHFFFAOYSA-N-P44-P44-P59-607687
     RDKit          3D

 33 35  0  0  0  0  0  0  0  0999 V2000
    1.9699    0.5992   32.4248 C   0  0  0  0  0  0  0  0  0  0  0  0
    1.8330    1.1459   31.0090 C   0  0  0  0  0  0  0  0  0  0  0  0
    0.3683    1.2512   30.5396 C   0  0  1  0  0  0  0  0  0  0  0  0
    0.2240    2.0002   29.2198 C   0  0  0  0  0  0  0  0  0  0  0  0
    1.1213    2.6222   28.7872 O   0  0  0  0  0  0  0  0  0  0  0  0
   -1.2553    1.8542   28.7060 N   0  0  0  0  0  0  0  0  0  0  0  0
   -1.8927    2.4714   27.6954 N   0  0  0  0  0  0  0  0  0  0  0  0
   -2.6708    1.8835   26.4840 C   0  0  0  0  0  0  0  0  0  0  0  0
   -2.8097    0.7768   26.1399 O   0  0  0  0  0  0  0  0  0  0  0  0
   -3.2260    3.0472   25.6489 C   0  0  0  0  0  0  0  0  0  0  0  0
   -2.2387    3.5043   24.5447 C   0  0  2  0  0  0  0  0  0  0  0  0
   -1.9675    2.3500   23.6870 O   0  0  0  0  0  0  0  0  0  0  0  0
   -0.9863    3.9547   25.2563 C   0  0  0  0  0  0  0  0  0  0  0  0
    0.0353    3.1160   25.6547 C   0  0  0  0  0  0  0  0  0  0  0  0
    0.8157    3.7558   26.5632 N   0  0  0  0  0  0  0  0  0  0  0  0
    0.2933    4.9893   26.8268 C   0  0  0  0  0  0  0  0  0  0  0  0
    0.6688    5.9124   27.8027 C   0  0  0  0  0  0  0  0  0  0  0  0
    0.0261    7.1487   27.8109 C   0  0  0  0  0  0  0  0  0  0  0  0
   -0.9601    7.4333   26.8771 C   0  0  0  0  0  0  0  0  0  0  0  0
   -1.3575    6.4692   25.9389 C   0  0  0  0  0  0  0  0  0  0  0  0
   -0.7426    5.2046   25.9189 C   0  0  0  0  0  0  0  0  0  0  0  0
   -2.8922    4.5687   23.6239 C   0  0  0  0  0  0  0  0  0  0  0  0
   -3.7549    3.9469   22.7746 F   0  0  0  0  0  0  0  0  0  0  0  0
   -3.6131    5.4930   24.2770 F   0  0  0  0  0  0  0  0  0  0  0  0
   -1.9913    5.2079   22.8447 F   0  0  0  0  0  0  0  0  0  0  0  0
   -0.3039   -0.0289   30.5125 N   0  0  0  0  0  0  0  0  0  0  0  0
   -1.2939   -0.2291   31.4069 N   0  0  0  0  0  0  0  0  0  0  0  0
   -1.5433   -1.5398   31.3023 C   0  0  0  0  0  0  0  0  0  0  0  0
   -2.4968   -2.1830   32.2327 C   0  0  0  0  0  0  0  0  0  0  0  0
   -0.7860   -2.1173   30.2566 C   0  0  0  0  0  0  0  0  0  0  0  0
   -0.6637   -3.7504   29.8538 Cl  0  0  0  0  0  0  0  0  0  0  0  0
   -0.1396   -1.0705   29.6425 C   0  0  0  0  0  0  0  0  0  0  0  0
    0.6166   -1.0053   28.3651 C   0  0  0  0  0  0  0  0  0  0  0  0
  1  2  1  0
  3  2  1  6
  3  4  1  0
  4  5  2  0
  4  6  1  0
  6  7  1  0
  7  8  1  0
  8  9  2  0
  8 10  1  0
 10 11  1  0
 11 12  1  6
 11 13  1  0
 13 14  2  0
 14 15  1  0
 15 16  1  0
 16 17  2  0
 17 18  1  0
 18 19  2  0
 19 20  1  0
 20 21  2  0
 11 22  1  0
 22 23  1  0
 22 24  1  0
 22 25  1  0
  3 26  1  0
 26 27  1  0
 27 28  2  0
 28 29  1  0
 28 30  1  0
 30 31  1  0
 30 32  2  0
 32 33  1  0
 21 13  1  0
 32 26  1  0
 21 16  1  0
M  END
>  <name>  (202) 
GWNJRVRCIMBOSP-UHFFFAOYSA-N-P44-P44-P59-607687

>  <HIPPO Compound ID>  (202) 
99119

>  <energy_score>  (202) 
-1.023492

>  <HIPPO Pose ID>  (202) 
63022

>  <inspiration_score>  (202) 
None

>  <ref_pdb>  (202) 
7gp2-a

>  <inchikey>  (202) 
GWNJRVRCIMBOSP-UHFFFAOYSA-N

>  <alias>  (202) 
GWNJRVRCIMBOSP-UHFFFAOYSA-N-P44-P44-P59-607687

>  <distance_score>  (202) 
1.983775

>  <ref_mols>  (202) 
7goy-a,7gp2-a

>  <smiles>  (202) 
CCC(C(=O)NNC(=O)CC(O)(c1c[nH]c2ccccc12)C(F)(F)F)n1nc(C)c(Cl)c1C

$$$$
LAFUPXGBKQDZKE-UHFFFAOYSA-N-P59-P44-P59-607687
     RDKit          3D

 33 36  0  0  0  0  0  0  0  0999 V2000
    0.4329   -0.9671   28.1312 C   0  0  0  0  0  0  0  0  0  0  0  0
    0.0784   -0.7489   29.5535 C   0  0  0  0  0  0  0  0  0  0  0  0
    0.7681    0.1121   30.3032 N   0  0  0  0  0  0  0  0  0  0  0  0
    0.1151    0.1457   31.4855 N   0  0  0  0  0  0  0  0  0  0  0  0
    0.5330    1.1035   32.5021 C   0  0  0  0  0  0  0  0  0  0  0  0
    1.8166    1.8903   32.1936 C   0  0  0  0  0  0  0  0  0  0  0  0
    1.7818    2.5404   30.9050 N   0  0  0  0  0  0  0  0  0  0  0  0
    2.0791    4.0118   30.5098 C   0  0  0  0  0  0  0  0  0  0  0  0
    2.3226    4.9411   31.1769 O   0  0  0  0  0  0  0  0  0  0  0  0
    1.9888    4.1079   28.9463 C   0  0  1  0  0  0  0  0  0  0  0  0
    0.6244    4.6986   28.5625 C   0  0  0  0  0  0  0  0  0  0  0  0
   -0.3138    3.7065   27.9220 C   0  0  0  0  0  0  0  0  0  0  0  0
   -0.7082    2.4947   28.4473 C   0  0  0  0  0  0  0  0  0  0  0  0
   -1.6720    1.9550   27.6551 N   0  0  0  0  0  0  0  0  0  0  0  0
   -1.9168    2.8024   26.6116 C   0  0  0  0  0  0  0  0  0  0  0  0
   -2.8735    2.7156   25.6081 C   0  0  0  0  0  0  0  0  0  0  0  0
   -2.8964    3.7084   24.6240 C   0  0  0  0  0  0  0  0  0  0  0  0
   -2.0038    4.7703   24.6651 C   0  0  0  0  0  0  0  0  0  0  0  0
   -1.0874    4.8750   25.7141 C   0  0  0  0  0  0  0  0  0  0  0  0
   -1.0416    3.8776   26.7086 C   0  0  0  0  0  0  0  0  0  0  0  0
    3.1356    4.9883   28.5797 N   0  0  0  0  0  0  0  0  0  0  0  0
    3.6224    5.0702   26.9781 S   0  0  0  0  0  0  0  0  0  0  0  0
    4.7649    5.9553   26.9491 O   0  0  0  0  0  0  0  0  0  0  0  0
    2.4528    5.3035   26.1652 O   0  0  0  0  0  0  0  0  0  0  0  0
    4.2621    3.4695   26.5498 C   0  0  0  0  0  0  0  0  0  0  0  0
    4.9265    2.5138   27.2972 C   0  0  0  0  0  0  0  0  0  0  0  0
    5.2568    1.3593   26.5306 C   0  0  0  0  0  0  0  0  0  0  0  0
    4.8442    1.4791   25.2225 C   0  0  0  0  0  0  0  0  0  0  0  0
    4.0681    2.9746   24.9260 S   0  0  0  0  0  0  0  0  0  0  0  0
   -0.9521   -0.7211   31.5291 C   0  0  0  0  0  0  0  0  0  0  0  0
   -1.8521   -0.9121   32.6926 C   0  0  0  0  0  0  0  0  0  0  0  0
   -0.9464   -1.3428   30.3021 C   0  0  0  0  0  0  0  0  0  0  0  0
   -1.9454   -2.5721   29.7759 Cl  0  0  0  0  0  0  0  0  0  0  0  0
  1  2  1  0
  2  3  2  0
  3  4  1  0
  4  5  1  0
  5  6  1  0
  6  7  1  0
  7  8  1  0
  8  9  2  0
  8 10  1  0
 10 11  1  1
 11 12  1  0
 12 13  2  0
 13 14  1  0
 14 15  1  0
 15 16  2  0
 16 17  1  0
 17 18  2  0
 18 19  1  0
 19 20  2  0
 10 21  1  0
 21 22  1  0
 22 23  2  0
 22 24  2  0
 22 25  1  0
 25 26  2  0
 26 27  1  0
 27 28  2  0
 28 29  1  0
  4 30  1  0
 30 31  1  0
 30 32  2  0
 32 33  1  0
 32  2  1  0
 20 12  1  0
 29 25  1  0
 20 15  1  0
M  END
>  <name>  (203) 
LAFUPXGBKQDZKE-UHFFFAOYSA-N-P59-P44-P59-607687

>  <HIPPO Compound ID>  (203) 
99145

>  <energy_score>  (203) 
-30.36348

>  <HIPPO Pose ID>  (203) 
63075

>  <inspiration_score>  (203) 
None

>  <ref_pdb>  (203) 
7gp2-a

>  <inchikey>  (203) 
LAFUPXGBKQDZKE-UHFFFAOYSA-N

>  <alias>  (203) 
LAFUPXGBKQDZKE-UHFFFAOYSA-N-P59-P44-P59-607687

>  <distance_score>  (203) 
1.972675

>  <ref_mols>  (203) 
7goy-a,7gp2-a

>  <smiles>  (203) 
Cc1nn(CCNC(=O)C(Cc2c[nH]c3ccccc23)NS(=O)(=O)c2cccs2)c(C)c1Cl

$$$$
PCRQLAVEYUICMZ-UHFFFAOYSA-N-P44-P44-P59-607687
     RDKit          3D

 33 35  0  0  0  0  0  0  0  0999 V2000
    1.0669   -0.5944   28.1855 C   0  0  0  0  0  0  0  0  0  0  0  0
    0.3848   -0.6860   29.5038 C   0  0  0  0  0  0  0  0  0  0  0  0
   -0.9330   -0.9721   29.7594 C   0  0  0  0  0  0  0  0  0  0  0  0
   -2.0736   -1.2718   28.5625 Cl  0  0  0  0  0  0  0  0  0  0  0  0
   -1.0820   -0.9629   31.1628 C   0  0  0  0  0  0  0  0  0  0  0  0
   -2.3160   -1.2995   31.9486 C   0  0  0  0  0  0  0  0  0  0  0  0
   -2.2375   -0.9587   33.2637 F   0  0  0  0  0  0  0  0  0  0  0  0
   -2.6049   -2.6290   31.9049 F   0  0  0  0  0  0  0  0  0  0  0  0
   -3.4026   -0.6324   31.4805 F   0  0  0  0  0  0  0  0  0  0  0  0
    0.0793   -0.5968   31.7467 N   0  0  0  0  0  0  0  0  0  0  0  0
    0.9763   -0.5232   30.7343 N   0  0  0  0  0  0  0  0  0  0  0  0
    2.4035   -0.3118   31.0399 C   0  0  2  0  0  0  0  0  0  0  0  0
    2.7050    0.0869   32.4857 C   0  0  0  0  0  0  0  0  0  0  0  0
    3.0187    0.6936   30.0638 C   0  0  0  0  0  0  0  0  0  0  0  0
    3.8919    0.4077   29.3406 O   0  0  0  0  0  0  0  0  0  0  0  0
    2.2019    2.0116   30.1856 N   0  0  0  0  0  0  0  0  0  0  0  0
    2.2277    3.1210   29.4391 N   0  0  0  0  0  0  0  0  0  0  0  0
    2.1504    4.6124   29.8511 C   0  0  0  0  0  0  0  0  0  0  0  0
    2.1303    5.1047   30.9091 O   0  0  0  0  0  0  0  0  0  0  0  0
    1.9889    5.4051   28.5588 C   0  0  0  0  0  0  0  0  0  0  0  0
    0.4870    5.7368   28.3412 C   0  0  2  0  0  0  0  0  0  0  0  0
   -0.3062    4.5731   27.7067 C   0  0  0  0  0  0  0  0  0  0  0  0
   -0.6230    3.4234   28.4215 C   0  0  0  0  0  0  0  0  0  0  0  0
   -1.4250    2.6094   27.6791 N   0  0  0  0  0  0  0  0  0  0  0  0
   -1.6623    3.1909   26.4634 C   0  0  0  0  0  0  0  0  0  0  0  0
   -2.4913    2.7573   25.4250 C   0  0  0  0  0  0  0  0  0  0  0  0
   -2.5776    3.5478   24.2781 C   0  0  0  0  0  0  0  0  0  0  0  0
   -1.8566    4.7229   24.1729 C   0  0  0  0  0  0  0  0  0  0  0  0
   -1.0535    5.1482   25.2335 C   0  0  0  0  0  0  0  0  0  0  0  0
   -0.9445    4.3933   26.4220 C   0  0  0  0  0  0  0  0  0  0  0  0
    0.3477    7.1769   27.7759 C   0  0  0  0  0  0  0  0  0  0  0  0
   -1.0940    7.6653   27.6414 C   0  0  0  0  0  0  0  0  0  0  0  0
    1.2001    7.4650   26.5356 C   0  0  0  0  0  0  0  0  0  0  0  0
  1  2  1  0
  2  3  2  0
  3  4  1  0
  3  5  1  0
  5  6  1  0
  6  7  1  0
  6  8  1  0
  6  9  1  0
  5 10  2  0
 10 11  1  0
 11 12  1  0
 12 13  1  1
 12 14  1  0
 14 15  2  0
 14 16  1  0
 16 17  1  0
 17 18  1  0
 18 19  2  0
 18 20  1  0
 21 20  1  6
 21 22  1  0
 22 23  2  0
 23 24  1  0
 24 25  1  0
 25 26  2  0
 26 27  1  0
 27 28  2  0
 28 29  1  0
 29 30  2  0
 21 31  1  0
 31 32  1  0
 31 33  1  0
 11  2  1  0
 30 22  1  0
 30 25  1  0
M  END
>  <name>  (204) 
PCRQLAVEYUICMZ-UHFFFAOYSA-N-P44-P44-P59-607687

>  <HIPPO Compound ID>  (204) 
99155

>  <energy_score>  (204) 
-2.868422

>  <HIPPO Pose ID>  (204) 
63094

>  <inspiration_score>  (204) 
None

>  <ref_pdb>  (204) 
7gp2-a

>  <inchikey>  (204) 
PCRQLAVEYUICMZ-UHFFFAOYSA-N

>  <alias>  (204) 
PCRQLAVEYUICMZ-UHFFFAOYSA-N-P44-P44-P59-607687

>  <distance_score>  (204) 
1.221907

>  <ref_mols>  (204) 
7goy-a,7gp2-a

>  <smiles>  (204) 
Cc1c(Cl)c(C(F)(F)F)nn1C(C)C(=O)NNC(=O)CC(c1c[nH]c2ccccc12)C(C)C

$$$$
MLJVIXLBEQTJSE-UHFFFAOYSA-N-P44-P44-P59-607687
     RDKit          3D

 33 36  0  0  0  0  0  0  0  0999 V2000
   -2.0197    3.5127   22.9729 C   0  0  0  0  0  0  0  0  0  0  0  0
   -1.7242    3.4233   24.4382 C   0  0  0  0  0  0  0  0  0  0  0  0
   -2.7430    3.1169   25.3386 C   0  0  0  0  0  0  0  0  0  0  0  0
   -2.5078    3.0444   26.7054 C   0  0  0  0  0  0  0  0  0  0  0  0
   -1.2250    3.3575   27.1433 C   0  0  0  0  0  0  0  0  0  0  0  0
   -0.7746    3.6182   28.4068 N   0  0  0  0  0  0  0  0  0  0  0  0
    0.5502    3.9939   28.4076 C   0  0  0  0  0  0  0  0  0  0  0  0
    1.1792    4.5056   29.6286 C   0  0  0  0  0  0  0  0  0  0  0  0
    0.9623    3.8772   30.8645 C   0  0  0  0  0  0  0  0  0  0  0  0
    1.5602    4.3638   32.0299 C   0  0  0  0  0  0  0  0  0  0  0  0
    2.3710    5.4939   31.9672 C   0  0  0  0  0  0  0  0  0  0  0  0
    3.1806    6.1553   33.5411 Br  0  0  0  0  0  0  0  0  0  0  0  0
    2.5836    6.1428   30.7537 C   0  0  0  0  0  0  0  0  0  0  0  0
    1.9834    5.6516   29.5906 C   0  0  0  0  0  0  0  0  0  0  0  0
    0.9952    3.8778   27.0929 C   0  0  0  0  0  0  0  0  0  0  0  0
    2.3785    4.0848   26.5223 C   0  0  0  0  0  0  0  0  0  0  0  0
    3.5411    3.4270   27.2688 C   0  0  0  0  0  0  0  0  0  0  0  0
    3.2027    1.9954   27.6638 C   0  0  0  0  0  0  0  0  0  0  0  0
    2.9718    1.1597   26.8798 O   0  0  0  0  0  0  0  0  0  0  0  0
    3.1393    1.9643   29.2204 N   0  0  0  0  0  0  0  0  0  0  0  0
    2.7206    1.0033   30.0541 N   0  0  0  0  0  0  0  0  0  0  0  0
    3.2340   -0.4543   30.2568 C   0  0  0  0  0  0  0  0  0  0  0  0
    4.1479   -1.0085   29.7819 O   0  0  0  0  0  0  0  0  0  0  0  0
    2.2516   -1.1362   31.1924 C   0  0  0  0  0  0  0  0  0  0  0  0
    0.8721   -1.0727   30.7265 N   0  0  0  0  0  0  0  0  0  0  0  0
    0.4227   -1.0730   29.4424 C   0  0  0  0  0  0  0  0  0  0  0  0
   -0.9440   -1.0598   29.5181 C   0  0  0  0  0  0  0  0  0  0  0  0
   -1.9897   -1.0309   28.2007 Cl  0  0  0  0  0  0  0  0  0  0  0  0
   -1.2404   -1.0831   30.9012 C   0  0  0  0  0  0  0  0  0  0  0  0
   -2.5508   -1.1922   31.5819 C   0  0  0  0  0  0  0  0  0  0  0  0
   -0.1214   -0.9947   31.6369 N   0  0  0  0  0  0  0  0  0  0  0  0
   -0.1631    3.6085   26.2863 C   0  0  0  0  0  0  0  0  0  0  0  0
   -0.4116    3.6022   24.8997 C   0  0  0  0  0  0  0  0  0  0  0  0
  1  2  1  0
  2  3  2  0
  3  4  1  0
  4  5  2  0
  5  6  1  0
  6  7  1  0
  7  8  1  0
  8  9  2  0
  9 10  1  0
 10 11  2  0
 11 12  1  0
 11 13  1  0
 13 14  2  0
  7 15  2  0
 15 16  1  0
 16 17  1  0
 17 18  1  0
 18 19  2  0
 18 20  1  0
 20 21  1  0
 21 22  1  0
 22 23  2  0
 22 24  1  0
 24 25  1  0
 25 26  1  0
 26 27  2  0
 27 28  1  0
 27 29  1  0
 29 30  1  0
 29 31  2  0
 15 32  1  0
 32 33  2  0
 33  2  1  0
 32  5  1  0
 14  8  1  0
 31 25  1  0
M  END
>  <name>  (205) 
MLJVIXLBEQTJSE-UHFFFAOYSA-N-P44-P44-P59-607687

>  <HIPPO Compound ID>  (205) 
99177

>  <energy_score>  (205) 
-10.674293

>  <HIPPO Pose ID>  (205) 
63138

>  <inspiration_score>  (205) 
None

>  <ref_pdb>  (205) 
7gp2-a

>  <inchikey>  (205) 
MLJVIXLBEQTJSE-UHFFFAOYSA-N

>  <alias>  (205) 
MLJVIXLBEQTJSE-UHFFFAOYSA-N-P44-P44-P59-607687

>  <distance_score>  (205) 
1.767059

>  <ref_mols>  (205) 
7goy-a,7gp2-a

>  <smiles>  (205) 
Cc1ccc2[nH]c(-c3ccc(Br)cc3)c(CCC(=O)NNC(=O)Cn3cc(Cl)c(C)n3)c2c1

$$$$
GUNOPEOTLXQJNJ-UHFFFAOYSA-N-P44-P44-P59-607687
     RDKit          3D

 33 36  0  0  0  0  0  0  0  0999 V2000
   -1.9274   -1.1309   32.7091 C   0  0  0  0  0  0  0  0  0  0  0  0
   -1.2511   -1.4417   31.4309 C   0  0  0  0  0  0  0  0  0  0  0  0
   -0.9690   -2.6494   30.8345 C   0  0  0  0  0  0  0  0  0  0  0  0
   -1.0930   -4.1884   31.5203 Cl  0  0  0  0  0  0  0  0  0  0  0  0
   -0.4915   -2.3372   29.5556 C   0  0  0  0  0  0  0  0  0  0  0  0
   -0.2968   -1.0279   29.4167 N   0  0  0  0  0  0  0  0  0  0  0  0
   -0.6409   -0.5200   30.6173 N   0  0  0  0  0  0  0  0  0  0  0  0
   -0.2030    0.8199   30.9593 C   0  0  0  0  0  0  0  0  0  0  0  0
    1.3131    0.9174   31.1233 C   0  0  0  0  0  0  0  0  0  0  0  0
    1.9556    1.1669   29.8622 N   0  0  0  0  0  0  0  0  0  0  0  0
    2.5121    2.4797   29.2601 C   0  0  0  0  0  0  0  0  0  0  0  0
    2.6046    3.5460   29.7262 O   0  0  0  0  0  0  0  0  0  0  0  0
    2.8674    2.1836   27.7887 C   0  0  2  0  0  0  0  0  0  0  0  0
    1.8599    2.8894   26.8542 C   0  0  0  0  0  0  0  0  0  0  0  0
    0.4230    2.4276   26.8698 C   0  0  0  0  0  0  0  0  0  0  0  0
   -0.0758    1.2090   27.2714 C   0  0  0  0  0  0  0  0  0  0  0  0
   -1.4336    1.2118   27.1593 N   0  0  0  0  0  0  0  0  0  0  0  0
   -1.8158    2.3421   26.4888 C   0  0  0  0  0  0  0  0  0  0  0  0
   -3.0587    2.6886   25.9709 C   0  0  0  0  0  0  0  0  0  0  0  0
   -3.1313    3.8297   25.1707 C   0  0  0  0  0  0  0  0  0  0  0  0
   -2.0355    4.6668   25.0064 C   0  0  0  0  0  0  0  0  0  0  0  0
   -0.8149    4.3459   25.5979 C   0  0  0  0  0  0  0  0  0  0  0  0
   -0.6857    3.1348   26.3071 C   0  0  0  0  0  0  0  0  0  0  0  0
    2.9755    0.7078   27.4717 N   0  0  0  0  0  0  0  0  0  0  0  0
    4.5288    0.0683   27.6933 S   0  0  0  0  0  0  0  0  0  0  0  0
    4.9453    0.3237   29.0510 O   0  0  0  0  0  0  0  0  0  0  0  0
    5.2927    0.5152   26.5501 O   0  0  0  0  0  0  0  0  0  0  0  0
    4.2333   -1.6733   27.5286 C   0  0  0  0  0  0  0  0  0  0  0  0
    4.9132   -2.4068   26.5519 C   0  0  0  0  0  0  0  0  0  0  0  0
    4.6738   -3.7768   26.4315 C   0  0  0  0  0  0  0  0  0  0  0  0
    3.7595   -4.4058   27.2786 C   0  0  0  0  0  0  0  0  0  0  0  0
    3.0851   -3.6694   28.2539 C   0  0  0  0  0  0  0  0  0  0  0  0
    3.3218   -2.3000   28.3841 C   0  0  0  0  0  0  0  0  0  0  0  0
  1  2  1  0
  2  3  2  0
  3  4  1  0
  3  5  1  0
  5  6  2  0
  6  7  1  0
  7  8  1  0
  8  9  1  0
  9 10  1  0
 10 11  1  0
 11 12  2  0
 11 13  1  0
 13 14  1  6
 14 15  1  0
 15 16  2  0
 16 17  1  0
 17 18  1  0
 18 19  2  0
 19 20  1  0
 20 21  2  0
 21 22  1  0
 22 23  2  0
 13 24  1  0
 24 25  1  0
 25 26  2  0
 25 27  2  0
 25 28  1  0
 28 29  2  0
 29 30  1  0
 30 31  2  0
 31 32  1  0
 32 33  2  0
  7  2  1  0
 23 15  1  0
 33 28  1  0
 23 18  1  0
M  END
>  <name>  (206) 
GUNOPEOTLXQJNJ-UHFFFAOYSA-N-P44-P44-P59-607687

>  <HIPPO Compound ID>  (206) 
99196

>  <energy_score>  (206) 
-43.218215

>  <HIPPO Pose ID>  (206) 
63176

>  <inspiration_score>  (206) 
None

>  <ref_pdb>  (206) 
7gp2-a

>  <inchikey>  (206) 
GUNOPEOTLXQJNJ-UHFFFAOYSA-N

>  <alias>  (206) 
GUNOPEOTLXQJNJ-UHFFFAOYSA-N-P44-P44-P59-607687

>  <distance_score>  (206) 
1.891014

>  <ref_mols>  (206) 
7goy-a,7gp2-a

>  <smiles>  (206) 
Cc1c(Cl)cnn1CCNC(=O)C(Cc1c[nH]c2ccccc12)NS(=O)(=O)c1ccccc1

$$$$
CXAUTQVHZLMUAC-UHFFFAOYSA-N-P59-P44-P59-607687
     RDKit          3D

 33 37  0  0  0  0  0  0  0  0999 V2000
   -2.8778    3.2917   25.1724 C   0  0  0  0  0  0  0  0  0  0  0  0
   -2.0858    2.2441   25.9426 C   0  0  2  0  0  0  0  0  0  0  0  0
   -2.8865    1.7253   27.1210 C   0  0  0  0  0  0  0  0  0  0  0  0
   -2.3058    0.4535   27.7733 C   0  0  0  0  0  0  0  0  0  0  0  0
   -2.5887   -0.6182   27.4090 O   0  0  0  0  0  0  0  0  0  0  0  0
   -1.4348    0.9104   28.9770 N   0  0  0  0  0  0  0  0  0  0  0  0
   -0.8446    0.1784   29.9804 C   0  0  0  0  0  0  0  0  0  0  0  0
   -0.9186   -1.1584   30.3161 C   0  0  0  0  0  0  0  0  0  0  0  0
   -1.5753   -2.4875   29.5266 Cl  0  0  0  0  0  0  0  0  0  0  0  0
   -0.3501   -1.2505   31.5939 C   0  0  0  0  0  0  0  0  0  0  0  0
    0.1396   -0.0883   32.0185 N   0  0  0  0  0  0  0  0  0  0  0  0
   -0.0493    0.7379   30.9662 N   0  0  0  0  0  0  0  0  0  0  0  0
    0.6814    1.9980   30.9456 C   0  0  2  0  0  0  0  0  0  0  0  0
    2.1919    1.7713   30.7809 C   0  0  0  0  0  0  0  0  0  0  0  0
    2.7836    2.1640   32.1249 C   0  0  0  0  0  0  0  0  0  0  0  0
    1.9305    3.2923   32.5051 N   0  0  0  0  0  0  0  0  0  0  0  0
    2.1064    3.6983   33.9029 C   0  0  0  0  0  0  0  0  0  0  0  0
    3.4527    4.3392   34.1604 C   0  0  0  0  0  0  0  0  0  0  0  0
    4.3677    3.7532   35.0466 C   0  0  0  0  0  0  0  0  0  0  0  0
    5.6065    4.3522   35.2834 C   0  0  0  0  0  0  0  0  0  0  0  0
    5.9429    5.5411   34.6381 C   0  0  0  0  0  0  0  0  0  0  0  0
    5.0424    6.1326   33.7543 C   0  0  0  0  0  0  0  0  0  0  0  0
    3.8038    5.5355   33.5166 C   0  0  0  0  0  0  0  0  0  0  0  0
    0.5626    2.8247   32.2365 C   0  0  0  0  0  0  0  0  0  0  0  0
   -0.7638    2.7099   26.4556 C   0  0  0  0  0  0  0  0  0  0  0  0
    0.2576    1.8468   26.8069 C   0  0  0  0  0  0  0  0  0  0  0  0
    1.2215    2.5527   27.4493 N   0  0  0  0  0  0  0  0  0  0  0  0
    0.8354    3.8610   27.5682 C   0  0  0  0  0  0  0  0  0  0  0  0
    1.4638    4.9153   28.2331 C   0  0  0  0  0  0  0  0  0  0  0  0
    0.8952    6.1857   28.1471 C   0  0  0  0  0  0  0  0  0  0  0  0
   -0.2597    6.3900   27.4071 C   0  0  0  0  0  0  0  0  0  0  0  0
   -0.8885    5.3188   26.7614 C   0  0  0  0  0  0  0  0  0  0  0  0
   -0.3553    4.0181   26.8593 C   0  0  0  0  0  0  0  0  0  0  0  0
  2  1  1  1
  2  3  1  0
  3  4  1  0
  4  5  2  0
  4  6  1  0
  6  7  1  0
  7  8  2  0
  8  9  1  0
  8 10  1  0
 10 11  2  0
 11 12  1  0
 13 12  1  1
 13 14  1  0
 14 15  1  0
 15 16  1  0
 16 17  1  0
 17 18  1  0
 18 19  2  0
 19 20  1  0
 20 21  2  0
 21 22  1  0
 22 23  2  0
 16 24  1  0
  2 25  1  0
 25 26  2  0
 26 27  1  0
 27 28  1  0
 28 29  2  0
 29 30  1  0
 30 31  2  0
 31 32  1  0
 32 33  2  0
 12  7  1  0
 24 13  1  0
 33 25  1  0
 23 18  1  0
 33 28  1  0
M  END
>  <name>  (207) 
CXAUTQVHZLMUAC-UHFFFAOYSA-N-P59-P44-P59-607687

>  <HIPPO Compound ID>  (207) 
99200

>  <energy_score>  (207) 
-52.197941

>  <HIPPO Pose ID>  (207) 
63185

>  <inspiration_score>  (207) 
None

>  <ref_pdb>  (207) 
7gp2-a

>  <inchikey>  (207) 
CXAUTQVHZLMUAC-UHFFFAOYSA-N

>  <alias>  (207) 
CXAUTQVHZLMUAC-UHFFFAOYSA-N-P59-P44-P59-607687

>  <distance_score>  (207) 
1.954919

>  <ref_mols>  (207) 
7goy-a,7gp2-a

>  <smiles>  (207) 
CC(CC(=O)Nc1c(Cl)cnn1C1CCN(Cc2ccccc2)C1)c1c[nH]c2ccccc12

$$$$
KDROIGAYWFMKBH-UHFFFAOYSA-N-P44-P44-P59-607687
     RDKit          3D

 33 37  0  0  0  0  0  0  0  0999 V2000
   -1.4726   -0.5918   27.7143 C   0  0  0  0  0  0  0  0  0  0  0  0
   -0.9563    0.7977   27.6318 C   0  0  0  0  0  0  0  0  0  0  0  0
   -1.8126    1.8501   27.8055 N   0  0  0  0  0  0  0  0  0  0  0  0
   -1.1557    3.0304   27.5958 C   0  0  0  0  0  0  0  0  0  0  0  0
   -1.6373    4.3309   27.6627 C   0  0  0  0  0  0  0  0  0  0  0  0
   -0.7794    5.3767   27.3192 C   0  0  0  0  0  0  0  0  0  0  0  0
    0.5242    5.1170   26.9212 C   0  0  0  0  0  0  0  0  0  0  0  0
    0.9960    3.8017   26.8849 C   0  0  0  0  0  0  0  0  0  0  0  0
    0.1486    2.7357   27.2469 C   0  0  0  0  0  0  0  0  0  0  0  0
    0.3081    1.3218   27.3902 C   0  0  0  0  0  0  0  0  0  0  0  0
    1.6061    0.5719   27.2299 C   0  0  0  0  0  0  0  0  0  0  0  0
    2.4069    0.3266   28.4993 C   0  0  0  0  0  0  0  0  0  0  0  0
    1.7179   -0.7507   29.3168 C   0  0  0  0  0  0  0  0  0  0  0  0
    1.8501   -1.8952   29.1280 O   0  0  0  0  0  0  0  0  0  0  0  0
    0.7915    0.0044   30.3050 N   0  0  0  0  0  0  0  0  0  0  0  0
   -0.1738   -0.4634   31.1468 C   0  0  0  0  0  0  0  0  0  0  0  0
   -0.9078   -1.6287   31.1934 C   0  0  0  0  0  0  0  0  0  0  0  0
   -0.7961   -3.0580   30.2971 Cl  0  0  0  0  0  0  0  0  0  0  0  0
   -1.9143   -1.3674   32.1420 C   0  0  0  0  0  0  0  0  0  0  0  0
   -1.7947   -0.1593   32.7021 N   0  0  0  0  0  0  0  0  0  0  0  0
   -0.6242    0.2916   32.2039 N   0  0  0  0  0  0  0  0  0  0  0  0
    0.0603    1.4096   32.8344 C   0  0  2  0  0  0  0  0  0  0  0  0
    1.5655    1.1971   33.0676 C   0  0  0  0  0  0  0  0  0  0  0  0
    1.8653    1.7764   34.4485 C   0  0  0  0  0  0  0  0  0  0  0  0
    0.6698    2.5139   34.8759 N   0  0  0  0  0  0  0  0  0  0  0  0
    0.7413    3.9297   34.4668 C   0  0  0  0  0  0  0  0  0  0  0  0
   -0.4211    4.7717   34.9526 C   0  0  0  0  0  0  0  0  0  0  0  0
   -0.9097    4.6477   36.2626 C   0  0  0  0  0  0  0  0  0  0  0  0
   -1.9489    5.4618   36.7163 C   0  0  0  0  0  0  0  0  0  0  0  0
   -2.4997    6.4233   35.8727 C   0  0  0  0  0  0  0  0  0  0  0  0
   -2.0118    6.5703   34.5761 C   0  0  0  0  0  0  0  0  0  0  0  0
   -0.9805    5.7488   34.1160 C   0  0  0  0  0  0  0  0  0  0  0  0
   -0.4368    1.7736   34.2377 C   0  0  0  0  0  0  0  0  0  0  0  0
  1  2  1  0
  2  3  1  0
  3  4  1  0
  4  5  2  0
  5  6  1  0
  6  7  2  0
  7  8  1  0
  8  9  2  0
  9 10  1  0
 10 11  1  0
 11 12  1  0
 12 13  1  0
 13 14  2  0
 13 15  1  0
 15 16  1  0
 16 17  2  0
 17 18  1  0
 17 19  1  0
 19 20  2  0
 20 21  1  0
 22 21  1  1
 22 23  1  0
 23 24  1  0
 24 25  1  0
 25 26  1  0
 26 27  1  0
 27 28  2  0
 28 29  1  0
 29 30  2  0
 30 31  1  0
 31 32  2  0
 25 33  1  0
 10  2  2  0
 21 16  1  0
 33 22  1  0
  9  4  1  0
 32 27  1  0
M  END
>  <name>  (208) 
KDROIGAYWFMKBH-UHFFFAOYSA-N-P44-P44-P59-607687

>  <HIPPO Compound ID>  (208) 
99204

>  <energy_score>  (208) 
-34.983569

>  <HIPPO Pose ID>  (208) 
63192

>  <inspiration_score>  (208) 
None

>  <ref_pdb>  (208) 
7gp2-a

>  <inchikey>  (208) 
KDROIGAYWFMKBH-UHFFFAOYSA-N

>  <alias>  (208) 
KDROIGAYWFMKBH-UHFFFAOYSA-N-P44-P44-P59-607687

>  <distance_score>  (208) 
1.909176

>  <ref_mols>  (208) 
7goy-a,7gp2-a

>  <smiles>  (208) 
Cc1[nH]c2ccccc2c1CCC(=O)Nc1c(Cl)cnn1C1CCN(Cc2ccccc2)C1

$$$$
UYWBAFLPCIMFPK-UHFFFAOYSA-N-P59-P44-P59-607687
     RDKit          3D

 33 37  0  0  0  0  0  0  0  0999 V2000
   -1.0035    6.9382   27.4249 C   0  0  0  0  0  0  0  0  0  0  0  0
   -0.5905    5.5033   27.2760 C   0  0  0  0  0  0  0  0  0  0  0  0
    0.6743    5.1953   26.7816 C   0  0  0  0  0  0  0  0  0  0  0  0
    1.0913    3.8666   26.6893 C   0  0  0  0  0  0  0  0  0  0  0  0
    0.2241    2.8281   27.0708 C   0  0  0  0  0  0  0  0  0  0  0  0
    0.3758    1.4292   27.2788 C   0  0  0  0  0  0  0  0  0  0  0  0
    1.6795    0.6872   27.2965 C   0  0  0  0  0  0  0  0  0  0  0  0
    2.5464    0.9381   28.5356 C   0  0  0  0  0  0  0  0  0  0  0  0
    1.8234    1.0062   29.8771 C   0  0  0  0  0  0  0  0  0  0  0  0
    2.0206    1.8606   30.6494 O   0  0  0  0  0  0  0  0  0  0  0  0
    0.8496   -0.2016   29.9398 N   0  0  0  0  0  0  0  0  0  0  0  0
   -0.0927   -0.5316   30.8681 C   0  0  0  0  0  0  0  0  0  0  0  0
   -1.0988   -1.4572   30.7146 C   0  0  0  0  0  0  0  0  0  0  0  0
   -1.2993   -2.5721   29.4653 Cl  0  0  0  0  0  0  0  0  0  0  0  0
   -1.9723   -1.2256   31.7823 C   0  0  0  0  0  0  0  0  0  0  0  0
   -1.5213   -0.2770   32.6073 N   0  0  0  0  0  0  0  0  0  0  0  0
   -0.2876    0.0220   32.1120 N   0  0  0  0  0  0  0  0  0  0  0  0
    0.7185    0.5614   33.0128 C   0  0  2  0  0  0  0  0  0  0  0  0
    0.9314   -0.2668   34.2862 C   0  0  0  0  0  0  0  0  0  0  0  0
    1.2322    0.7843   35.3418 C   0  0  0  0  0  0  0  0  0  0  0  0
    0.3889    1.9415   34.9987 N   0  0  0  0  0  0  0  0  0  0  0  0
   -0.9815    1.7503   35.5183 C   0  0  0  0  0  0  0  0  0  0  0  0
   -1.9165    2.9359   35.3617 C   0  0  0  0  0  0  0  0  0  0  0  0
   -1.4515    4.2574   35.3242 C   0  0  0  0  0  0  0  0  0  0  0  0
   -2.3477    5.3255   35.2502 C   0  0  0  0  0  0  0  0  0  0  0  0
   -3.7208    5.0878   35.2369 C   0  0  0  0  0  0  0  0  0  0  0  0
   -4.2006    3.7811   35.2850 C   0  0  0  0  0  0  0  0  0  0  0  0
   -3.3042    2.7126   35.3475 C   0  0  0  0  0  0  0  0  0  0  0  0
    0.4301    1.9798   33.5152 C   0  0  0  0  0  0  0  0  0  0  0  0
   -0.8875    0.9170   27.5170 C   0  0  0  0  0  0  0  0  0  0  0  0
   -1.7401    1.9741   27.6805 N   0  0  0  0  0  0  0  0  0  0  0  0
   -1.0617    3.1473   27.4657 C   0  0  0  0  0  0  0  0  0  0  0  0
   -1.4818    4.4671   27.6006 C   0  0  0  0  0  0  0  0  0  0  0  0
  1  2  1  0
  2  3  2  0
  3  4  1  0
  4  5  2  0
  5  6  1  0
  6  7  1  0
  7  8  1  0
  8  9  1  0
  9 10  2  0
  9 11  1  0
 11 12  1  0
 12 13  2  0
 13 14  1  0
 13 15  1  0
 15 16  2  0
 16 17  1  0
 18 17  1  1
 18 19  1  0
 19 20  1  0
 20 21  1  0
 21 22  1  0
 22 23  1  0
 23 24  2  0
 24 25  1  0
 25 26  2  0
 26 27  1  0
 27 28  2  0
 21 29  1  0
  6 30  2  0
 30 31  1  0
 31 32  1  0
 32 33  2  0
 33  2  1  0
 32  5  1  0
 17 12  1  0
 29 18  1  0
 28 23  1  0
M  END
>  <name>  (209) 
UYWBAFLPCIMFPK-UHFFFAOYSA-N-P59-P44-P59-607687

>  <HIPPO Compound ID>  (209) 
99205

>  <energy_score>  (209) 
-37.957484

>  <HIPPO Pose ID>  (209) 
63195

>  <inspiration_score>  (209) 
None

>  <ref_pdb>  (209) 
7gp2-a

>  <inchikey>  (209) 
UYWBAFLPCIMFPK-UHFFFAOYSA-N

>  <alias>  (209) 
UYWBAFLPCIMFPK-UHFFFAOYSA-N-P59-P44-P59-607687

>  <distance_score>  (209) 
1.837041

>  <ref_mols>  (209) 
7goy-a,7gp2-a

>  <smiles>  (209) 
Cc1ccc2c(CCC(=O)Nc3c(Cl)cnn3C3CCN(Cc4ccccc4)C3)c[nH]c2c1

$$$$
OZKQQTPEQIEYHG-UHFFFAOYSA-N-P44-P44-P59-607688
     RDKit          3D

 34 37  0  0  0  0  0  0  0  0999 V2000
   -2.8804    4.9920   24.3907 C   0  0  0  0  0  0  0  0  0  0  0  0
   -2.3026    4.0573   25.4130 C   0  0  0  0  0  0  0  0  0  0  0  0
   -2.9062    2.8265   25.6712 C   0  0  0  0  0  0  0  0  0  0  0  0
   -2.2830    1.8390   26.4373 C   0  0  0  0  0  0  0  0  0  0  0  0
   -1.0197    2.1396   26.9401 C   0  0  0  0  0  0  0  0  0  0  0  0
   -0.1044    1.3462   27.5786 N   0  0  0  0  0  0  0  0  0  0  0  0
    1.0955    2.0186   27.7565 C   0  0  0  0  0  0  0  0  0  0  0  0
    2.3521    1.3024   28.0627 C   0  0  0  0  0  0  0  0  0  0  0  0
    2.5569    0.0074   27.5568 C   0  0  0  0  0  0  0  0  0  0  0  0
    3.7350   -0.7057   27.8064 C   0  0  0  0  0  0  0  0  0  0  0  0
    4.7397   -0.1252   28.5687 C   0  0  0  0  0  0  0  0  0  0  0  0
    6.3298   -1.0811   28.9196 Br  0  0  0  0  0  0  0  0  0  0  0  0
    4.5734    1.1580   29.0737 C   0  0  0  0  0  0  0  0  0  0  0  0
    3.3897    1.8624   28.8153 C   0  0  0  0  0  0  0  0  0  0  0  0
    0.8146    3.3609   27.5010 C   0  0  0  0  0  0  0  0  0  0  0  0
    1.6697    4.5738   27.7210 C   0  0  0  0  0  0  0  0  0  0  0  0
    1.2467    5.3489   28.9713 C   0  0  0  0  0  0  0  0  0  0  0  0
    1.7915    4.7123   30.2469 C   0  0  0  0  0  0  0  0  0  0  0  0
    2.8549    4.9737   30.6525 O   0  0  0  0  0  0  0  0  0  0  0  0
    0.7341    3.7092   30.7747 N   0  0  0  0  0  0  0  0  0  0  0  0
    0.7299    2.8898   31.9660 C   0  0  0  0  0  0  0  0  0  0  0  0
    1.1397    1.4333   31.7547 C   0  0  0  0  0  0  0  0  0  0  0  0
    0.0873    0.5271   31.3178 N   0  0  0  0  0  0  0  0  0  0  0  0
    0.2071   -0.4487   30.3715 C   0  0  0  0  0  0  0  0  0  0  0  0
   -0.8571   -1.2962   30.5353 C   0  0  0  0  0  0  0  0  0  0  0  0
   -1.1209   -2.7326   29.6880 Cl  0  0  0  0  0  0  0  0  0  0  0  0
   -1.5751   -0.7823   31.6378 C   0  0  0  0  0  0  0  0  0  0  0  0
   -2.7222   -1.4256   32.3563 C   0  0  0  0  0  0  0  0  0  0  0  0
   -3.5939   -0.5075   32.8571 F   0  0  0  0  0  0  0  0  0  0  0  0
   -3.4579   -2.2599   31.5738 F   0  0  0  0  0  0  0  0  0  0  0  0
   -2.2852   -2.1655   33.4068 F   0  0  0  0  0  0  0  0  0  0  0  0
   -1.0128    0.3672   32.0814 N   0  0  0  0  0  0  0  0  0  0  0  0
   -0.4363    3.3920   26.8084 C   0  0  0  0  0  0  0  0  0  0  0  0
   -1.0955    4.3733   26.0430 C   0  0  0  0  0  0  0  0  0  0  0  0
  1  2  1  0
  2  3  2  0
  3  4  1  0
  4  5  2  0
  5  6  1  0
  6  7  1  0
  7  8  1  0
  8  9  2  0
  9 10  1  0
 10 11  2  0
 11 12  1  0
 11 13  1  0
 13 14  2  0
  7 15  2  0
 15 16  1  0
 16 17  1  0
 17 18  1  0
 18 19  2  0
 18 20  1  0
 20 21  1  0
 21 22  1  0
 22 23  1  0
 23 24  1  0
 24 25  2  0
 25 26  1  0
 25 27  1  0
 27 28  1  0
 28 29  1  0
 28 30  1  0
 28 31  1  0
 27 32  2  0
 15 33  1  0
 33 34  2  0
 34  2  1  0
 33  5  1  0
 14  8  1  0
 32 23  1  0
M  END
>  <name>  (210) 
OZKQQTPEQIEYHG-UHFFFAOYSA-N-P44-P44-P59-607688

>  <HIPPO Compound ID>  (210) 
99242

>  <energy_score>  (210) 
-22.773931

>  <HIPPO Pose ID>  (210) 
63268

>  <inspiration_score>  (210) 
None

>  <ref_pdb>  (210) 
7gp2-a

>  <inchikey>  (210) 
OZKQQTPEQIEYHG-UHFFFAOYSA-N

>  <alias>  (210) 
OZKQQTPEQIEYHG-UHFFFAOYSA-N-P44-P44-P59-607688

>  <distance_score>  (210) 
1.220209

>  <ref_mols>  (210) 
7goy-a,7gp2-a

>  <smiles>  (210) 
Cc1ccc2[nH]c(-c3ccc(Br)cc3)c(CCC(=O)NCCn3cc(Cl)c(C(F)(F)F)n3)c2c1

$$$$
ZQWLMNMUIVILSM-UHFFFAOYSA-N-P44-P44-P59-607688
     RDKit          3D

 34 37  0  0  0  0  0  0  0  0999 V2000
   -2.9228    4.9629   24.3461 C   0  0  0  0  0  0  0  0  0  0  0  0
   -2.2494    4.0297   25.3091 C   0  0  0  0  0  0  0  0  0  0  0  0
   -2.8799    2.8597   25.7357 C   0  0  0  0  0  0  0  0  0  0  0  0
   -2.2022    1.8816   26.4671 C   0  0  0  0  0  0  0  0  0  0  0  0
   -0.8542    2.1153   26.7389 C   0  0  0  0  0  0  0  0  0  0  0  0
    0.1013    1.2813   27.2609 N   0  0  0  0  0  0  0  0  0  0  0  0
    1.3535    1.8646   27.1752 C   0  0  0  0  0  0  0  0  0  0  0  0
    2.5866    1.0658   27.2766 C   0  0  0  0  0  0  0  0  0  0  0  0
    2.7533    0.0754   28.2517 C   0  0  0  0  0  0  0  0  0  0  0  0
    3.9277   -0.6824   28.3173 C   0  0  0  0  0  0  0  0  0  0  0  0
    4.9394   -0.4741   27.3858 C   0  0  0  0  0  0  0  0  0  0  0  0
    6.5165   -1.5106   27.4618 Br  0  0  0  0  0  0  0  0  0  0  0  0
    4.7867    0.4855   26.3918 C   0  0  0  0  0  0  0  0  0  0  0  0
    3.6166    1.2494   26.3412 C   0  0  0  0  0  0  0  0  0  0  0  0
    1.1529    3.2049   26.8370 C   0  0  0  0  0  0  0  0  0  0  0  0
    2.1608    4.3294   26.7093 C   0  0  0  0  0  0  0  0  0  0  0  0
    3.0992    4.5698   27.8966 C   0  0  0  0  0  0  0  0  0  0  0  0
    2.3079    4.6678   29.1930 C   0  0  0  0  0  0  0  0  0  0  0  0
    1.7443    5.6311   29.5348 O   0  0  0  0  0  0  0  0  0  0  0  0
    2.3514    3.2501   29.8250 N   0  0  0  0  0  0  0  0  0  0  0  0
    1.6881    2.7456   30.8675 N   0  0  0  0  0  0  0  0  0  0  0  0
    2.0047    1.5132   31.7674 C   0  0  0  0  0  0  0  0  0  0  0  0
    2.9341    0.8017   31.7789 O   0  0  0  0  0  0  0  0  0  0  0  0
    0.7898    1.2430   32.6649 C   0  0  1  0  0  0  0  0  0  0  0  0
    0.2944    2.4527   33.4510 C   0  0  0  0  0  0  0  0  0  0  0  0
   -0.2574    0.5348   31.9148 N   0  0  0  0  0  0  0  0  0  0  0  0
   -0.3619    0.3313   30.5684 C   0  0  0  0  0  0  0  0  0  0  0  0
   -1.2855   -0.6636   30.3901 C   0  0  0  0  0  0  0  0  0  0  0  0
   -1.6589   -1.4240   28.9315 Cl  0  0  0  0  0  0  0  0  0  0  0  0
   -1.8080   -0.9004   31.6790 C   0  0  0  0  0  0  0  0  0  0  0  0
   -2.8490   -1.8584   32.1135 C   0  0  0  0  0  0  0  0  0  0  0  0
   -1.2246   -0.1118   32.5963 N   0  0  0  0  0  0  0  0  0  0  0  0
   -0.2130    3.3061   26.4143 C   0  0  0  0  0  0  0  0  0  0  0  0
   -0.9331    4.2889   25.7074 C   0  0  0  0  0  0  0  0  0  0  0  0
  1  2  1  0
  2  3  2  0
  3  4  1  0
  4  5  2  0
  5  6  1  0
  6  7  1  0
  7  8  1  0
  8  9  2  0
  9 10  1  0
 10 11  2  0
 11 12  1  0
 11 13  1  0
 13 14  2  0
  7 15  2  0
 15 16  1  0
 16 17  1  0
 17 18  1  0
 18 19  2  0
 18 20  1  0
 20 21  1  0
 21 22  1  0
 22 23  2  0
 22 24  1  0
 24 25  1  6
 24 26  1  0
 26 27  1  0
 27 28  2  0
 28 29  1  0
 28 30  1  0
 30 31  1  0
 30 32  2  0
 15 33  1  0
 33 34  2  0
 34  2  1  0
 33  5  1  0
 14  8  1  0
 32 26  1  0
M  END
>  <name>  (211) 
ZQWLMNMUIVILSM-UHFFFAOYSA-N-P44-P44-P59-607688

>  <HIPPO Compound ID>  (211) 
99243

>  <energy_score>  (211) 
-1.115711

>  <HIPPO Pose ID>  (211) 
63270

>  <inspiration_score>  (211) 
None

>  <ref_pdb>  (211) 
7gp2-a

>  <inchikey>  (211) 
ZQWLMNMUIVILSM-UHFFFAOYSA-N

>  <alias>  (211) 
ZQWLMNMUIVILSM-UHFFFAOYSA-N-P44-P44-P59-607688

>  <distance_score>  (211) 
1.465183

>  <ref_mols>  (211) 
7goy-a,7gp2-a

>  <smiles>  (211) 
Cc1ccc2[nH]c(-c3ccc(Br)cc3)c(CCC(=O)NNC(=O)C(C)n3cc(Cl)c(C)n3)c2c1

$$$$
PPOUVDAWLMCFED-UHFFFAOYSA-N-P59-P44-P59-607688
     RDKit          3D

 34 37  0  0  0  0  0  0  0  0999 V2000
    1.3611    4.6885   29.5448 O   0  0  0  0  0  0  0  0  0  0  0  0
    1.8912    3.7588   29.0829 C   0  0  0  0  0  0  0  0  0  0  0  0
    2.3071    3.7279   27.6140 C   0  0  0  0  0  0  0  0  0  0  0  0
    1.8352    2.5360   26.7828 C   0  0  0  0  0  0  0  0  0  0  0  0
    0.4019    2.1368   26.9983 C   0  0  0  0  0  0  0  0  0  0  0  0
   -0.1483    0.9652   27.5517 C   0  0  0  0  0  0  0  0  0  0  0  0
    0.3851   -0.3624   27.9624 C   0  0  0  0  0  0  0  0  0  0  0  0
    1.7539   -0.6393   28.1002 C   0  0  0  0  0  0  0  0  0  0  0  0
    2.2273   -1.9239   28.4070 C   0  0  0  0  0  0  0  0  0  0  0  0
    1.3300   -2.9619   28.5828 C   0  0  0  0  0  0  0  0  0  0  0  0
    1.7829   -4.1910   28.8593 F   0  0  0  0  0  0  0  0  0  0  0  0
   -0.0290   -2.7365   28.4600 C   0  0  0  0  0  0  0  0  0  0  0  0
   -0.4939   -1.4517   28.1488 C   0  0  0  0  0  0  0  0  0  0  0  0
   -1.5076    1.2223   27.6210 N   0  0  0  0  0  0  0  0  0  0  0  0
   -1.8432    2.2468   26.7850 C   0  0  0  0  0  0  0  0  0  0  0  0
   -3.0766    2.6151   26.2704 C   0  0  0  0  0  0  0  0  0  0  0  0
   -4.1822    1.9270   26.5768 F   0  0  0  0  0  0  0  0  0  0  0  0
   -3.1302    3.6385   25.3320 C   0  0  0  0  0  0  0  0  0  0  0  0
   -1.9932    4.3713   25.0212 C   0  0  0  0  0  0  0  0  0  0  0  0
   -0.7651    4.0280   25.5907 C   0  0  0  0  0  0  0  0  0  0  0  0
   -0.6793    2.8992   26.4369 C   0  0  0  0  0  0  0  0  0  0  0  0
    2.3535    2.4384   29.7426 N   0  0  0  0  0  0  0  0  0  0  0  0
    2.1733    1.9508   31.0874 C   0  0  0  0  0  0  0  0  0  0  0  0
    0.6978    1.7945   31.4685 C   0  0  0  0  0  0  0  0  0  0  0  0
    0.1034    0.4660   31.4186 N   0  0  0  0  0  0  0  0  0  0  0  0
    0.7143   -0.7496   31.3826 C   0  0  0  0  0  0  0  0  0  0  0  0
   -0.2431   -1.6834   31.6974 C   0  0  0  0  0  0  0  0  0  0  0  0
   -0.0053   -3.3466   31.9300 Cl  0  0  0  0  0  0  0  0  0  0  0  0
   -1.4290   -0.9542   31.8964 C   0  0  0  0  0  0  0  0  0  0  0  0
   -2.7389   -1.4854   32.3723 C   0  0  0  0  0  0  0  0  0  0  0  0
   -3.7906   -0.7782   31.8801 F   0  0  0  0  0  0  0  0  0  0  0  0
   -2.9471   -2.7857   32.0293 F   0  0  0  0  0  0  0  0  0  0  0  0
   -2.8487   -1.4031   33.7232 F   0  0  0  0  0  0  0  0  0  0  0  0
   -1.2147    0.3626   31.7006 N   0  0  0  0  0  0  0  0  0  0  0  0
  1  2  2  0
  2  3  1  0
  3  4  1  0
  4  5  1  0
  5  6  2  0
  6  7  1  0
  7  8  2  0
  8  9  1  0
  9 10  2  0
 10 11  1  0
 10 12  1  0
 12 13  2  0
  6 14  1  0
 14 15  1  0
 15 16  2  0
 16 17  1  0
 16 18  1  0
 18 19  2  0
 19 20  1  0
 20 21  2  0
  2 22  1  0
 22 23  1  0
 23 24  1  0
 24 25  1  0
 25 26  1  0
 26 27  2  0
 27 28  1  0
 27 29  1  0
 29 30  1  0
 30 31  1  0
 30 32  1  0
 30 33  1  0
 29 34  2  0
 21  5  1  0
 34 25  1  0
 13  7  1  0
 21 15  1  0
M  END
>  <name>  (212) 
PPOUVDAWLMCFED-UHFFFAOYSA-N-P59-P44-P59-607688

>  <HIPPO Compound ID>  (212) 
99248

>  <energy_score>  (212) 
-5.93838

>  <HIPPO Pose ID>  (212) 
63281

>  <inspiration_score>  (212) 
None

>  <ref_pdb>  (212) 
7gp2-a

>  <inchikey>  (212) 
PPOUVDAWLMCFED-UHFFFAOYSA-N

>  <alias>  (212) 
PPOUVDAWLMCFED-UHFFFAOYSA-N-P59-P44-P59-607688

>  <distance_score>  (212) 
1.899724

>  <ref_mols>  (212) 
7goy-a,7gp2-a

>  <smiles>  (212) 
O=C(CCc1c(-c2ccc(F)cc2)[nH]c2c(F)cccc12)NCCn1cc(Cl)c(C(F)(F)F)n1

$$$$
SHSUIGYIFNKFMV-UHFFFAOYSA-N-P59-P44-P59-607688
     RDKit          3D

 34 37  0  0  0  0  0  0  0  0999 V2000
    2.1514    0.7886   33.0829 C   0  0  0  0  0  0  0  0  0  0  0  0
    2.3602    1.0087   31.5894 C   0  0  0  0  0  0  0  0  0  0  0  0
    1.1270    1.5500   30.8301 C   0  0  2  0  0  0  0  0  0  0  0  0
    0.7203    2.9583   31.3274 C   0  0  0  0  0  0  0  0  0  0  0  0
    0.5186    3.9060   30.2476 N   0  0  0  0  0  0  0  0  0  0  0  0
    1.5406    4.7767   29.4660 C   0  0  0  0  0  0  0  0  0  0  0  0
    2.7073    4.8063   29.5204 O   0  0  0  0  0  0  0  0  0  0  0  0
    0.7609    5.6358   28.4627 C   0  0  0  0  0  0  0  0  0  0  0  0
    0.9615    5.1321   27.0276 C   0  0  0  0  0  0  0  0  0  0  0  0
    0.4170    3.7463   26.8695 C   0  0  0  0  0  0  0  0  0  0  0  0
    1.1408    2.5628   26.9236 C   0  0  0  0  0  0  0  0  0  0  0  0
    2.5729    2.3283   26.6995 C   0  0  0  0  0  0  0  0  0  0  0  0
    3.1427    2.7818   25.4955 C   0  0  0  0  0  0  0  0  0  0  0  0
    4.4883    2.5496   25.2015 C   0  0  0  0  0  0  0  0  0  0  0  0
    5.2762    1.8697   26.1173 C   0  0  0  0  0  0  0  0  0  0  0  0
    6.5690    1.6469   25.8470 F   0  0  0  0  0  0  0  0  0  0  0  0
    4.7401    1.4162   27.3148 C   0  0  0  0  0  0  0  0  0  0  0  0
    3.3897    1.6418   27.6012 C   0  0  0  0  0  0  0  0  0  0  0  0
    0.2189    1.5650   27.1027 N   0  0  0  0  0  0  0  0  0  0  0  0
   -1.0380    2.0338   26.8313 C   0  0  0  0  0  0  0  0  0  0  0  0
   -2.2415    1.3454   26.7264 C   0  0  0  0  0  0  0  0  0  0  0  0
   -3.3058    2.0362   26.1544 C   0  0  0  0  0  0  0  0  0  0  0  0
   -3.1525    3.3469   25.7381 C   0  0  0  0  0  0  0  0  0  0  0  0
   -4.1267    3.9184   25.0276 F   0  0  0  0  0  0  0  0  0  0  0  0
   -2.0014    4.0745   25.9983 C   0  0  0  0  0  0  0  0  0  0  0  0
   -0.9125    3.3868   26.5419 C   0  0  0  0  0  0  0  0  0  0  0  0
    0.0536    0.5515   30.7921 N   0  0  0  0  0  0  0  0  0  0  0  0
   -0.8756    0.5133   31.7898 N   0  0  0  0  0  0  0  0  0  0  0  0
   -1.5541   -0.6257   31.5714 C   0  0  0  0  0  0  0  0  0  0  0  0
   -2.6251   -1.0666   32.4982 C   0  0  0  0  0  0  0  0  0  0  0  0
   -1.0678   -1.3135   30.4458 C   0  0  0  0  0  0  0  0  0  0  0  0
   -1.5449   -2.8267   29.8991 Cl  0  0  0  0  0  0  0  0  0  0  0  0
   -0.0571   -0.5370   29.9662 C   0  0  0  0  0  0  0  0  0  0  0  0
    1.0095   -0.8727   28.6865 Cl  0  0  0  0  0  0  0  0  0  0  0  0
  1  2  1  0
  3  2  1  1
  3  4  1  0
  4  5  1  0
  5  6  1  0
  6  7  2  0
  6  8  1  0
  8  9  1  0
  9 10  1  0
 10 11  2  0
 11 12  1  0
 12 13  2  0
 13 14  1  0
 14 15  2  0
 15 16  1  0
 15 17  1  0
 17 18  2  0
 11 19  1  0
 19 20  1  0
 20 21  2  0
 21 22  1  0
 22 23  2  0
 23 24  1  0
 23 25  1  0
 25 26  2  0
  3 27  1  0
 27 28  1  0
 28 29  2  0
 29 30  1  0
 29 31  1  0
 31 32  1  0
 31 33  2  0
 33 34  1  0
 26 10  1  0
 33 27  1  0
 18 12  1  0
 26 20  1  0
M  END
>  <name>  (213) 
SHSUIGYIFNKFMV-UHFFFAOYSA-N-P59-P44-P59-607688

>  <HIPPO Compound ID>  (213) 
99269

>  <energy_score>  (213) 
-21.786849

>  <HIPPO Pose ID>  (213) 
63323

>  <inspiration_score>  (213) 
None

>  <ref_pdb>  (213) 
7gp2-a

>  <inchikey>  (213) 
SHSUIGYIFNKFMV-UHFFFAOYSA-N

>  <alias>  (213) 
SHSUIGYIFNKFMV-UHFFFAOYSA-N-P59-P44-P59-607688

>  <distance_score>  (213) 
1.720619

>  <ref_mols>  (213) 
7goy-a,7gp2-a

>  <smiles>  (213) 
CCC(CNC(=O)CCc1c(-c2ccc(F)cc2)[nH]c2ccc(F)cc12)n1nc(C)c(Cl)c1Cl

$$$$
UAQAMUMYRAPRFU-UHFFFAOYSA-N-P59-P44-P59-607688
     RDKit          3D

 34 37  0  0  0  0  0  0  0  0999 V2000
   -3.0771    5.2373   23.8056 C   0  0  0  0  0  0  0  0  0  0  0  0
   -3.5864    4.2544   24.6982 O   0  0  0  0  0  0  0  0  0  0  0  0
   -2.6680    3.6365   25.5003 C   0  0  0  0  0  0  0  0  0  0  0  0
   -3.0712    2.4035   26.0049 C   0  0  0  0  0  0  0  0  0  0  0  0
   -2.1927    1.5609   26.6839 C   0  0  0  0  0  0  0  0  0  0  0  0
   -0.8881    2.0207   26.8467 C   0  0  0  0  0  0  0  0  0  0  0  0
    0.2261    1.3677   27.3072 N   0  0  0  0  0  0  0  0  0  0  0  0
    1.3485    2.1553   27.1382 C   0  0  0  0  0  0  0  0  0  0  0  0
    2.7059    1.5959   27.1882 C   0  0  0  0  0  0  0  0  0  0  0  0
    3.6110    1.8794   26.1542 C   0  0  0  0  0  0  0  0  0  0  0  0
    4.9004    1.3440   26.1643 C   0  0  0  0  0  0  0  0  0  0  0  0
    5.2943    0.5231   27.2101 C   0  0  0  0  0  0  0  0  0  0  0  0
    6.5319    0.0124   27.2232 F   0  0  0  0  0  0  0  0  0  0  0  0
    4.4164    0.2211   28.2408 C   0  0  0  0  0  0  0  0  0  0  0  0
    3.1222    0.7487   28.2225 C   0  0  0  0  0  0  0  0  0  0  0  0
    0.9023    3.4362   26.8107 C   0  0  0  0  0  0  0  0  0  0  0  0
    1.7030    4.7116   26.6573 C   0  0  0  0  0  0  0  0  0  0  0  0
    2.5521    5.1352   27.8629 C   0  0  0  0  0  0  0  0  0  0  0  0
    1.7210    5.1217   29.1400 C   0  0  0  0  0  0  0  0  0  0  0  0
    1.0340    6.0038   29.4753 O   0  0  0  0  0  0  0  0  0  0  0  0
    1.9244    3.7122   29.7610 N   0  0  0  0  0  0  0  0  0  0  0  0
    1.3025    3.1166   30.7828 N   0  0  0  0  0  0  0  0  0  0  0  0
    1.7115    1.8747   31.6300 C   0  0  0  0  0  0  0  0  0  0  0  0
    2.6901    1.2339   31.6117 O   0  0  0  0  0  0  0  0  0  0  0  0
    0.5278    1.5032   32.4950 C   0  0  0  0  0  0  0  0  0  0  0  0
   -0.3396    0.5362   31.8267 N   0  0  0  0  0  0  0  0  0  0  0  0
   -0.2613    0.0289   30.5627 C   0  0  0  0  0  0  0  0  0  0  0  0
   -1.2398   -0.9240   30.4606 C   0  0  0  0  0  0  0  0  0  0  0  0
   -1.5258   -1.9279   29.1379 Cl  0  0  0  0  0  0  0  0  0  0  0  0
   -1.9070   -0.8925   31.7030 C   0  0  0  0  0  0  0  0  0  0  0  0
   -3.0225   -1.7315   32.1950 C   0  0  0  0  0  0  0  0  0  0  0  0
   -1.3947    0.0497   32.5102 N   0  0  0  0  0  0  0  0  0  0  0  0
   -0.4809    3.2963   26.4666 C   0  0  0  0  0  0  0  0  0  0  0  0
   -1.4018    4.1326   25.8037 C   0  0  0  0  0  0  0  0  0  0  0  0
  1  2  1  0
  2  3  1  0
  3  4  2  0
  4  5  1  0
  5  6  2  0
  6  7  1  0
  7  8  1  0
  8  9  1  0
  9 10  2  0
 10 11  1  0
 11 12  2  0
 12 13  1  0
 12 14  1  0
 14 15  2  0
  8 16  2  0
 16 17  1  0
 17 18  1  0
 18 19  1  0
 19 20  2  0
 19 21  1  0
 21 22  1  0
 22 23  1  0
 23 24  2  0
 23 25  1  0
 25 26  1  0
 26 27  1  0
 27 28  2  0
 28 29  1  0
 28 30  1  0
 30 31  1  0
 30 32  2  0
 16 33  1  0
 33 34  2  0
 34  3  1  0
 33  6  1  0
 15  9  1  0
 32 26  1  0
M  END
>  <name>  (214) 
UAQAMUMYRAPRFU-UHFFFAOYSA-N-P59-P44-P59-607688

>  <HIPPO Compound ID>  (214) 
99291

>  <energy_score>  (214) 
-3.687794

>  <HIPPO Pose ID>  (214) 
63367

>  <inspiration_score>  (214) 
None

>  <ref_pdb>  (214) 
7gp2-a

>  <inchikey>  (214) 
UAQAMUMYRAPRFU-UHFFFAOYSA-N

>  <alias>  (214) 
UAQAMUMYRAPRFU-UHFFFAOYSA-N-P59-P44-P59-607688

>  <distance_score>  (214) 
1.536035

>  <ref_mols>  (214) 
7goy-a,7gp2-a

>  <smiles>  (214) 
COc1ccc2[nH]c(-c3ccc(F)cc3)c(CCC(=O)NNC(=O)Cn3cc(Cl)c(C)n3)c2c1

$$$$
CNYZEMKPXABBAJ-UHFFFAOYSA-N-P59-P44-P59-607688
     RDKit          3D

 34 36  0  0  0  0  0  0  0  0999 V2000
    0.9334   -0.7890   28.1334 C   0  0  0  0  0  0  0  0  0  0  0  0
    0.2594   -0.8491   29.4559 C   0  0  0  0  0  0  0  0  0  0  0  0
   -1.0743   -1.0320   29.7182 C   0  0  0  0  0  0  0  0  0  0  0  0
   -2.2575   -1.1785   28.5324 Cl  0  0  0  0  0  0  0  0  0  0  0  0
   -1.2088   -1.0603   31.1221 C   0  0  0  0  0  0  0  0  0  0  0  0
   -2.4722   -1.3271   31.8913 C   0  0  0  0  0  0  0  0  0  0  0  0
   -2.3553   -1.1284   33.2301 F   0  0  0  0  0  0  0  0  0  0  0  0
   -2.9251   -2.6011   31.7158 F   0  0  0  0  0  0  0  0  0  0  0  0
   -3.4771   -0.5001   31.4940 F   0  0  0  0  0  0  0  0  0  0  0  0
   -0.0185   -0.7919   31.7059 N   0  0  0  0  0  0  0  0  0  0  0  0
    0.8684   -0.7348   30.6814 N   0  0  0  0  0  0  0  0  0  0  0  0
    2.2906   -0.5204   30.9879 C   0  0  0  0  0  0  0  0  0  0  0  0
    2.9235    0.4230   29.9794 C   0  0  0  0  0  0  0  0  0  0  0  0
    3.7822    0.1132   29.2504 O   0  0  0  0  0  0  0  0  0  0  0  0
    2.1245    1.7517   30.0872 N   0  0  0  0  0  0  0  0  0  0  0  0
    2.1525    2.8452   29.3202 N   0  0  0  0  0  0  0  0  0  0  0  0
    2.5100    4.3101   29.6709 C   0  0  0  0  0  0  0  0  0  0  0  0
    2.9094    4.7737   30.6640 O   0  0  0  0  0  0  0  0  0  0  0  0
    2.1294    5.1340   28.4405 C   0  0  0  0  0  0  0  0  0  0  0  0
    0.6008    5.4695   28.4249 C   0  0  2  0  0  0  0  0  0  0  0  0
    0.1992    5.6323   29.8107 O   0  0  0  0  0  0  0  0  0  0  0  0
   -0.2710    4.3402   27.8033 C   0  0  0  0  0  0  0  0  0  0  0  0
   -0.6259    3.1760   28.4742 C   0  0  0  0  0  0  0  0  0  0  0  0
   -1.4711    2.4273   27.7112 N   0  0  0  0  0  0  0  0  0  0  0  0
   -1.7335    3.0872   26.5416 C   0  0  0  0  0  0  0  0  0  0  0  0
   -2.6157    2.7420   25.5138 C   0  0  0  0  0  0  0  0  0  0  0  0
   -2.7179    3.6023   24.4203 C   0  0  0  0  0  0  0  0  0  0  0  0
   -1.9596    4.7584   24.3564 C   0  0  0  0  0  0  0  0  0  0  0  0
   -1.1003    5.0973   25.4057 C   0  0  0  0  0  0  0  0  0  0  0  0
   -0.9739    4.2640   26.5394 C   0  0  0  0  0  0  0  0  0  0  0  0
    0.4639    6.8549   27.7314 C   0  0  0  0  0  0  0  0  0  0  0  0
   -0.8237    7.2410   27.5892 F   0  0  0  0  0  0  0  0  0  0  0  0
    1.0494    6.8658   26.5096 F   0  0  0  0  0  0  0  0  0  0  0  0
    1.0821    7.8294   28.4486 F   0  0  0  0  0  0  0  0  0  0  0  0
  1  2  1  0
  2  3  2  0
  3  4  1  0
  3  5  1  0
  5  6  1  0
  6  7  1  0
  6  8  1  0
  6  9  1  0
  5 10  2  0
 10 11  1  0
 11 12  1  0
 12 13  1  0
 13 14  2  0
 13 15  1  0
 15 16  1  0
 16 17  1  0
 17 18  2  0
 17 19  1  0
 19 20  1  0
 20 21  1  1
 20 22  1  0
 22 23  2  0
 23 24  1  0
 24 25  1  0
 25 26  2  0
 26 27  1  0
 27 28  2  0
 28 29  1  0
 29 30  2  0
 20 31  1  0
 31 32  1  0
 31 33  1  0
 31 34  1  0
 11  2  1  0
 30 22  1  0
 30 25  1  0
M  END
>  <name>  (215) 
CNYZEMKPXABBAJ-UHFFFAOYSA-N-P59-P44-P59-607688

>  <HIPPO Compound ID>  (215) 
99327

>  <energy_score>  (215) 
-14.257584

>  <HIPPO Pose ID>  (215) 
63439

>  <inspiration_score>  (215) 
None

>  <ref_pdb>  (215) 
7gp2-a

>  <inchikey>  (215) 
CNYZEMKPXABBAJ-UHFFFAOYSA-N

>  <alias>  (215) 
CNYZEMKPXABBAJ-UHFFFAOYSA-N-P59-P44-P59-607688

>  <distance_score>  (215) 
1.307028

>  <ref_mols>  (215) 
7goy-a,7gp2-a

>  <smiles>  (215) 
Cc1c(Cl)c(C(F)(F)F)nn1CC(=O)NNC(=O)CC(O)(c1c[nH]c2ccccc12)C(F)(F)F

$$$$
ZLZDJYFLLJIGSW-UHFFFAOYSA-N-P44-P44-P59-607688
     RDKit          3D

 34 36  0  0  0  0  0  0  0  0999 V2000
    1.1647   -0.8074   28.3002 C   0  0  0  0  0  0  0  0  0  0  0  0
    0.4330   -1.0404   29.5737 C   0  0  0  0  0  0  0  0  0  0  0  0
   -0.9190   -1.1782   29.7806 C   0  0  0  0  0  0  0  0  0  0  0  0
   -2.0667   -1.1112   28.5520 Cl  0  0  0  0  0  0  0  0  0  0  0  0
   -1.0901   -1.3752   31.1689 C   0  0  0  0  0  0  0  0  0  0  0  0
   -2.3410   -1.7127   31.9262 C   0  0  0  0  0  0  0  0  0  0  0  0
   -3.0112   -0.6156   32.3708 F   0  0  0  0  0  0  0  0  0  0  0  0
   -2.0741   -2.4787   33.0169 F   0  0  0  0  0  0  0  0  0  0  0  0
   -3.2170   -2.4441   31.1891 F   0  0  0  0  0  0  0  0  0  0  0  0
    0.0957   -1.2388   31.8017 N   0  0  0  0  0  0  0  0  0  0  0  0
    1.0124   -1.1461   30.8164 N   0  0  0  0  0  0  0  0  0  0  0  0
    2.4405   -1.0295   31.1669 C   0  0  2  0  0  0  0  0  0  0  0  0
    2.7629   -1.1272   32.6569 C   0  0  0  0  0  0  0  0  0  0  0  0
    2.9836    0.2684   30.5733 C   0  0  0  0  0  0  0  0  0  0  0  0
    3.9139    0.3003   29.8664 O   0  0  0  0  0  0  0  0  0  0  0  0
    2.0140    1.4014   31.0141 N   0  0  0  0  0  0  0  0  0  0  0  0
    1.9421    2.6707   30.6326 N   0  0  0  0  0  0  0  0  0  0  0  0
    0.8829    3.7555   30.9456 C   0  0  0  0  0  0  0  0  0  0  0  0
   -0.0467    3.7228   31.6486 O   0  0  0  0  0  0  0  0  0  0  0  0
    1.1833    4.9576   30.0510 C   0  0  0  0  0  0  0  0  0  0  0  0
    1.2872    4.6648   28.5156 C   0  0  1  0  0  0  0  0  0  0  0  0
    0.0387    4.0082   27.8797 C   0  0  0  0  0  0  0  0  0  0  0  0
   -0.4246    2.7525   28.2580 C   0  0  0  0  0  0  0  0  0  0  0  0
   -1.4808    2.3806   27.4741 N   0  0  0  0  0  0  0  0  0  0  0  0
   -1.6775    3.3152   26.4921 C   0  0  0  0  0  0  0  0  0  0  0  0
   -2.5582    3.3004   25.3970 C   0  0  0  0  0  0  0  0  0  0  0  0
   -2.5301    4.3920   24.5261 C   0  0  0  0  0  0  0  0  0  0  0  0
   -3.5679    4.4113   22.9516 Br  0  0  0  0  0  0  0  0  0  0  0  0
   -1.7233    5.4856   24.7748 C   0  0  0  0  0  0  0  0  0  0  0  0
   -0.8865    5.4890   25.8893 C   0  0  0  0  0  0  0  0  0  0  0  0
   -0.8012    4.3777   26.7564 C   0  0  0  0  0  0  0  0  0  0  0  0
    1.9645    5.8899   27.8362 C   0  0  0  0  0  0  0  0  0  0  0  0
    1.2024    7.2078   27.9989 C   0  0  0  0  0  0  0  0  0  0  0  0
    2.4680    5.6207   26.4145 C   0  0  0  0  0  0  0  0  0  0  0  0
  1  2  1  0
  2  3  2  0
  3  4  1  0
  3  5  1  0
  5  6  1  0
  6  7  1  0
  6  8  1  0
  6  9  1  0
  5 10  2  0
 10 11  1  0
 11 12  1  0
 12 13  1  1
 12 14  1  0
 14 15  2  0
 14 16  1  0
 16 17  1  0
 17 18  1  0
 18 19  2  0
 18 20  1  0
 21 20  1  1
 21 22  1  0
 22 23  2  0
 23 24  1  0
 24 25  1  0
 25 26  2  0
 26 27  1  0
 27 28  1  0
 27 29  2  0
 29 30  1  0
 30 31  2  0
 21 32  1  0
 32 33  1  0
 32 34  1  0
 11  2  1  0
 31 22  1  0
 31 25  1  0
M  END
>  <name>  (216) 
ZLZDJYFLLJIGSW-UHFFFAOYSA-N-P44-P44-P59-607688

>  <HIPPO Compound ID>  (216) 
99337

>  <energy_score>  (216) 
-17.721631

>  <HIPPO Pose ID>  (216) 
63458

>  <inspiration_score>  (216) 
None

>  <ref_pdb>  (216) 
7gp2-a

>  <inchikey>  (216) 
ZLZDJYFLLJIGSW-UHFFFAOYSA-N

>  <alias>  (216) 
ZLZDJYFLLJIGSW-UHFFFAOYSA-N-P44-P44-P59-607688

>  <distance_score>  (216) 
1.344326

>  <ref_mols>  (216) 
7goy-a,7gp2-a

>  <smiles>  (216) 
Cc1c(Cl)c(C(F)(F)F)nn1C(C)C(=O)NNC(=O)CC(c1c[nH]c2cc(Br)ccc12)C(C)C

$$$$
RXJAPEMQJJZPKV-UHFFFAOYSA-N-P59-P44-P59-607688
     RDKit          3D

 34 37  0  0  0  0  0  0  0  0999 V2000
   -2.9839   -1.4948   32.1786 C   0  0  0  0  0  0  0  0  0  0  0  0
   -1.7279   -0.9037   31.6606 C   0  0  0  0  0  0  0  0  0  0  0  0
   -1.1460    0.1057   32.3297 N   0  0  0  0  0  0  0  0  0  0  0  0
    0.0354    0.2809   31.6988 N   0  0  0  0  0  0  0  0  0  0  0  0
    1.0222    1.1834   32.2924 C   0  0  0  0  0  0  0  0  0  0  0  0
    2.0909    1.5382   31.2808 C   0  0  0  0  0  0  0  0  0  0  0  0
    3.1188    0.9856   31.2225 O   0  0  0  0  0  0  0  0  0  0  0  0
    1.4846    2.6368   30.3631 N   0  0  0  0  0  0  0  0  0  0  0  0
    1.9424    3.1657   29.2267 N   0  0  0  0  0  0  0  0  0  0  0  0
    1.4938    4.4381   28.4531 C   0  0  0  0  0  0  0  0  0  0  0  0
    0.7093    5.2568   28.7334 O   0  0  0  0  0  0  0  0  0  0  0  0
    2.2304    4.3982   27.0961 C   0  0  2  0  0  0  0  0  0  0  0  0
    1.8577    3.0983   26.3322 C   0  0  0  0  0  0  0  0  0  0  0  0
    0.4614    2.5795   26.5845 C   0  0  0  0  0  0  0  0  0  0  0  0
    0.1285    1.4702   27.3448 C   0  0  0  0  0  0  0  0  0  0  0  0
   -1.2295    1.3657   27.3918 N   0  0  0  0  0  0  0  0  0  0  0  0
   -1.7800    2.3157   26.5718 C   0  0  0  0  0  0  0  0  0  0  0  0
   -3.1060    2.5088   26.2082 C   0  0  0  0  0  0  0  0  0  0  0  0
   -3.3705    3.4703   25.2312 C   0  0  0  0  0  0  0  0  0  0  0  0
   -2.3734    4.2912   24.7229 C   0  0  0  0  0  0  0  0  0  0  0  0
   -1.0592    4.1339   25.1523 C   0  0  0  0  0  0  0  0  0  0  0  0
   -0.7507    3.0977   26.0546 C   0  0  0  0  0  0  0  0  0  0  0  0
    3.6841    4.5114   27.4049 N   0  0  0  0  0  0  0  0  0  0  0  0
    4.8007    4.5119   26.1426 S   0  0  0  0  0  0  0  0  0  0  0  0
    6.0575    4.8909   26.7501 O   0  0  0  0  0  0  0  0  0  0  0  0
    4.6540    3.2837   25.4001 O   0  0  0  0  0  0  0  0  0  0  0  0
    4.4104    5.8665   25.0572 C   0  0  0  0  0  0  0  0  0  0  0  0
    4.7412    7.2085   25.1161 C   0  0  0  0  0  0  0  0  0  0  0  0
    4.2052    7.9504   24.0242 C   0  0  0  0  0  0  0  0  0  0  0  0
    3.4837    7.1508   23.1665 C   0  0  0  0  0  0  0  0  0  0  0  0
    3.4531    5.5212   23.6821 S   0  0  0  0  0  0  0  0  0  0  0  0
    0.1521   -0.4924   30.5780 C   0  0  0  0  0  0  0  0  0  0  0  0
   -0.9702   -1.2761   30.5302 C   0  0  0  0  0  0  0  0  0  0  0  0
   -1.3001   -2.4826   29.4017 Cl  0  0  0  0  0  0  0  0  0  0  0  0
  1  2  1  0
  2  3  2  0
  3  4  1  0
  4  5  1  0
  5  6  1  0
  6  7  2  0
  6  8  1  0
  8  9  1  0
  9 10  1  0
 10 11  2  0
 10 12  1  0
 12 13  1  1
 13 14  1  0
 14 15  2  0
 15 16  1  0
 16 17  1  0
 17 18  2  0
 18 19  1  0
 19 20  2  0
 20 21  1  0
 21 22  2  0
 12 23  1  0
 23 24  1  0
 24 25  2  0
 24 26  2  0
 24 27  1  0
 27 28  2  0
 28 29  1  0
 29 30  2  0
 30 31  1  0
  4 32  1  0
 32 33  2  0
 33 34  1  0
 33  2  1  0
 22 14  1  0
 31 27  1  0
 22 17  1  0
M  END
>  <name>  (217) 
RXJAPEMQJJZPKV-UHFFFAOYSA-N-P59-P44-P59-607688

>  <HIPPO Compound ID>  (217) 
99352

>  <energy_score>  (217) 
-21.607102

>  <HIPPO Pose ID>  (217) 
63489

>  <inspiration_score>  (217) 
None

>  <ref_pdb>  (217) 
7gp2-a

>  <inchikey>  (217) 
RXJAPEMQJJZPKV-UHFFFAOYSA-N

>  <alias>  (217) 
RXJAPEMQJJZPKV-UHFFFAOYSA-N-P59-P44-P59-607688

>  <distance_score>  (217) 
1.926282

>  <ref_mols>  (217) 
7goy-a,7gp2-a

>  <smiles>  (217) 
Cc1nn(CC(=O)NNC(=O)C(Cc2c[nH]c3ccccc23)NS(=O)(=O)c2cccs2)cc1Cl

$$$$
LIXZRZWXPINAKN-UHFFFAOYSA-N-P44-P44-P59-607688
     RDKit          3D

 34 37  0  0  0  0  0  0  0  0999 V2000
   -0.5943    6.4646   24.2930 C   0  0  0  0  0  0  0  0  0  0  0  0
   -1.9247    5.7145   24.4463 C   0  0  0  0  0  0  0  0  0  0  0  0
   -2.6263    5.6935   23.0800 C   0  0  0  0  0  0  0  0  0  0  0  0
   -1.7416    4.2794   25.0325 C   0  0  2  0  0  0  0  0  0  0  0  0
   -3.0502    3.4522   25.0050 C   0  0  0  0  0  0  0  0  0  0  0  0
   -3.2378    2.2844   25.9969 C   0  0  0  0  0  0  0  0  0  0  0  0
   -4.2530    2.0938   26.5429 O   0  0  0  0  0  0  0  0  0  0  0  0
   -1.8634    1.5736   26.1489 N   0  0  0  0  0  0  0  0  0  0  0  0
   -1.4643    0.6180   27.0086 N   0  0  0  0  0  0  0  0  0  0  0  0
   -1.9345   -0.8520   27.1699 C   0  0  0  0  0  0  0  0  0  0  0  0
   -2.7914   -1.4341   26.6346 O   0  0  0  0  0  0  0  0  0  0  0  0
   -0.9873   -1.5268   28.1267 C   0  0  0  0  0  0  0  0  0  0  0  0
   -1.0202   -1.0023   29.4722 N   0  0  0  0  0  0  0  0  0  0  0  0
   -2.1412   -1.1271   30.1916 N   0  0  0  0  0  0  0  0  0  0  0  0
   -1.7503   -1.0208   31.4699 C   0  0  0  0  0  0  0  0  0  0  0  0
   -2.6943   -1.3093   32.5921 C   0  0  0  0  0  0  0  0  0  0  0  0
   -3.2658   -0.1730   33.0742 F   0  0  0  0  0  0  0  0  0  0  0  0
   -3.7152   -2.1274   32.2113 F   0  0  0  0  0  0  0  0  0  0  0  0
   -2.0810   -1.9135   33.6417 F   0  0  0  0  0  0  0  0  0  0  0  0
   -0.3846   -0.6633   31.5334 C   0  0  0  0  0  0  0  0  0  0  0  0
    0.5178   -0.3947   32.9450 Cl  0  0  0  0  0  0  0  0  0  0  0  0
    0.0619   -0.6718   30.2308 C   0  0  0  0  0  0  0  0  0  0  0  0
    1.5300   -0.5729   29.7457 C   0  0  0  0  0  0  0  0  0  0  0  0
    1.9405    0.4369   28.7141 C   0  0  0  0  0  0  0  0  0  0  0  0
    2.3590    0.6195   30.1415 C   0  0  0  0  0  0  0  0  0  0  0  0
   -1.0462    4.2563   26.3760 C   0  0  0  0  0  0  0  0  0  0  0  0
   -1.6443    4.2622   27.6162 C   0  0  0  0  0  0  0  0  0  0  0  0
   -0.6786    4.1755   28.5768 N   0  0  0  0  0  0  0  0  0  0  0  0
    0.5553    4.0496   27.9984 C   0  0  0  0  0  0  0  0  0  0  0  0
    1.8227    3.9546   28.5846 C   0  0  0  0  0  0  0  0  0  0  0  0
    2.9231    3.8239   27.7332 C   0  0  0  0  0  0  0  0  0  0  0  0
    2.7595    3.8019   26.3513 C   0  0  0  0  0  0  0  0  0  0  0  0
    1.4871    3.9305   25.7827 C   0  0  0  0  0  0  0  0  0  0  0  0
    0.3580    4.0738   26.6182 C   0  0  0  0  0  0  0  0  0  0  0  0
  1  2  1  0
  2  3  1  0
  2  4  1  0
  4  5  1  1
  5  6  1  0
  6  7  2  0
  6  8  1  0
  8  9  1  0
  9 10  1  0
 10 11  2  0
 10 12  1  0
 12 13  1  0
 13 14  1  0
 14 15  2  0
 15 16  1  0
 16 17  1  0
 16 18  1  0
 16 19  1  0
 15 20  1  0
 20 21  1  0
 20 22  2  0
 22 23  1  0
 23 24  1  0
 24 25  1  0
  4 26  1  0
 26 27  2  0
 27 28  1  0
 28 29  1  0
 29 30  2  0
 30 31  1  0
 31 32  2  0
 32 33  1  0
 33 34  2  0
 22 13  1  0
 25 23  1  0
 34 26  1  0
 34 29  1  0
M  END
>  <name>  (218) 
LIXZRZWXPINAKN-UHFFFAOYSA-N-P44-P44-P59-607688

>  <HIPPO Compound ID>  (218) 
99353

>  <energy_score>  (218) 
-9.119938

>  <HIPPO Pose ID>  (218) 
63490

>  <inspiration_score>  (218) 
None

>  <ref_pdb>  (218) 
7gp2-a

>  <inchikey>  (218) 
LIXZRZWXPINAKN-UHFFFAOYSA-N

>  <alias>  (218) 
LIXZRZWXPINAKN-UHFFFAOYSA-N-P44-P44-P59-607688

>  <distance_score>  (218) 
1.859906

>  <ref_mols>  (218) 
7goy-a,7gp2-a

>  <smiles>  (218) 
CC(C)C(CC(=O)NNC(=O)Cn1nc(C(F)(F)F)c(Cl)c1C1CC1)c1c[nH]c2ccccc12

$$$$
SMQZTPZZVYKYKV-UHFFFAOYSA-N-P98-P98-P111-607688
     RDKit          3D

 24 27  0  0  0  0  0  0  0  0999 V2000
   16.6277    3.5020   12.4258 O   0  0  0  0  0  0  0  0  0  0  0  0
   16.0587    2.4018   12.4412 N   0  0  0  0  0  0  0  0  0  0  0  0
   16.4473    1.4045   11.8150 O   0  0  0  0  0  0  0  0  0  0  0  0
   14.8480    2.2634   13.2502 C   0  0  0  0  0  0  0  0  0  0  0  0
   14.3178    3.4398   13.8571 C   0  0  0  0  0  0  0  0  0  0  0  0
   13.1880    3.4320   14.6979 C   0  0  0  0  0  0  0  0  0  0  0  0
   12.5753    2.1725   14.8577 C   0  0  0  0  0  0  0  0  0  0  0  0
   11.4799    1.9158   15.5757 N   0  0  0  0  0  0  0  0  0  0  0  0
   11.0177    0.3537   15.3412 S   0  0  0  0  0  0  0  0  0  0  0  0
   12.3593   -0.1359   14.3752 C   0  0  0  0  0  0  0  0  0  0  0  0
   12.5392   -1.3801   13.8598 N   0  0  0  0  0  0  0  0  0  0  0  0
   12.0556   -2.5453   14.5732 C   0  0  0  0  0  0  0  0  0  0  0  0
   12.9848   -3.0091   15.6604 C   0  0  0  0  0  0  0  0  0  0  0  0
   14.3320   -2.7812   15.8553 C   0  0  0  0  0  0  0  0  0  0  0  0
   14.8743   -3.5618   16.9274 C   0  0  0  0  0  0  0  0  0  0  0  0
   16.2554   -3.6561   17.2304 N   0  0  0  0  0  0  0  0  0  0  0  0
   17.2925   -3.1102   16.5161 C   0  0  0  0  0  0  0  0  0  0  0  0
   18.4410   -3.5725   17.1109 C   0  0  0  0  0  0  0  0  0  0  0  0
   18.1533   -4.3421   18.2005 N   0  0  0  0  0  0  0  0  0  0  0  0
   16.8403   -4.3717   18.2519 C   0  0  0  0  0  0  0  0  0  0  0  0
   13.8959   -4.2416   17.6089 C   0  0  0  0  0  0  0  0  0  0  0  0
   12.4080   -4.0858   16.8189 S   0  0  0  0  0  0  0  0  0  0  0  0
   13.1306    0.9903   14.1818 C   0  0  0  0  0  0  0  0  0  0  0  0
   14.2814    0.9780   13.3834 C   0  0  0  0  0  0  0  0  0  0  0  0
  1  2  2  0
  2  3  1  0
  2  4  1  0
  4  5  1  0
  5  6  2  0
  6  7  1  0
  7  8  2  0
  8  9  1  0
  9 10  1  0
 10 11  1  0
 11 12  1  0
 12 13  1  0
 13 14  2  0
 14 15  1  0
 15 16  1  0
 16 17  1  0
 17 18  2  0
 18 19  1  0
 19 20  2  0
 15 21  2  0
 21 22  1  0
 10 23  2  0
 23 24  1  0
 24  4  2  0
 23  7  1  0
 22 13  1  0
 20 16  1  0
M  CHG  2   2   1   3  -1
M  END
>  <name>  (219) 
SMQZTPZZVYKYKV-UHFFFAOYSA-N-P98-P98-P111-607688

>  <HIPPO Compound ID>  (219) 
99388

>  <energy_score>  (219) 
-78.798158

>  <HIPPO Pose ID>  (219) 
63540

>  <inspiration_score>  (219) 
None

>  <ref_pdb>  (219) 
7gp2-a

>  <inchikey>  (219) 
SMQZTPZZVYKYKV-UHFFFAOYSA-N

>  <alias>  (219) 
SMQZTPZZVYKYKV-UHFFFAOYSA-N-P98-P98-P111-607688

>  <distance_score>  (219) 
1.627586

>  <ref_mols>  (219) 
7gpg-a,7gph-a

>  <smiles>  (219) 
O=[N+]([O-])c1ccc2nsc(NCc3cc(-n4ccnc4)cs3)c2c1

$$$$
