A71EV2A-x4674_A_201_1_A71EV2A-x0911+A+147+1__LIG
     RDKit          3D

 22 24  0  0  0  0  0  0  0  0999 V2000
    7.8240   13.5430   22.4950 O   0  0  0  0  0  0  0  0  0  0  0  0
    8.7240   13.9560   23.2180 C   0  0  0  0  0  0  0  0  0  0  0  0
    9.4100   15.1020   22.9430 N   0  0  0  0  0  0  0  0  0  0  0  0
   10.5970   15.5420   23.7000 C   0  0  0  0  0  0  0  0  0  0  0  0
   11.8950   15.1660   22.9830 C   0  0  0  0  0  0  0  0  0  0  0  0
   11.8540   15.6140   21.5200 C   0  0  0  0  0  0  0  0  0  0  0  0
    9.3630   15.6070   21.5690 C   0  0  0  0  0  0  0  0  0  0  0  0
   10.5890   15.1030   20.8050 C   0  0  1  0  0  0  0  0  0  0  0  0
   10.5580   15.5350   19.3480 C   0  0  0  0  0  0  0  0  0  0  0  0
   10.2300   16.6800   19.0290 O   0  0  0  0  0  0  0  0  0  0  0  0
   10.9060   14.6110   18.4650 N   0  0  0  0  0  0  0  0  0  0  0  0
    9.0950   13.2960   24.3340 N   0  0  0  0  0  0  0  0  0  0  0  0
    8.4920   12.0790   24.7030 C   0  0  0  0  0  0  0  0  0  0  0  0
    7.3830   12.1100   25.5620 C   0  0  0  0  0  0  0  0  0  0  0  0
    7.0010   13.6980   26.2260 S   0  0  0  0  0  0  0  0  0  0  0  0
    5.4040   13.4230   27.0190 C   0  0  0  0  0  0  0  0  0  0  0  0
    5.3890   12.0790   27.7020 C   0  0  0  0  0  0  0  0  0  0  0  0
    5.4680   10.9100   26.7490 C   0  0  0  0  0  0  0  0  0  0  0  0
    6.6900   10.9260   25.8680 C   0  0  0  0  0  0  0  0  0  0  0  0
    7.1480    9.7380   25.3070 C   0  0  0  0  0  0  0  0  0  0  0  0
    8.2540    9.7080   24.4770 C   0  0  0  0  0  0  0  0  0  0  0  0
    8.9340   10.8740   24.1650 C   0  0  0  0  0  0  0  0  0  0  0  0
 11  9  1  0
 10  9  2  0
  8  9  1  6
  8  6  1  0
  6  5  1  0
  5  4  1  0
  4  3  1  0
  3  2  1  0
  2  1  2  0
 12  2  1  0
 13 12  1  0
 13 22  1  0
 22 21  2  0
 21 20  1  0
 20 19  2  0
 19 14  1  0
 14 13  2  0
 15 14  1  0
 16 15  1  0
 17 16  1  0
 18 17  1  0
 19 18  1  0
  7  3  1  0
  8  7  1  0
M  END
$$$$
