A71EV2A-x5475_C_201_5_A71EV2A-x0911+A+147+1__LIG
     RDKit          3D

 23 25  0  0  0  0  0  0  0  0999 V2000
   10.3410   16.6820   19.1730 O   0  0  0  0  0  0  0  0  0  0  0  0
   10.6500   15.5010   19.4210 C   0  0  0  0  0  0  0  0  0  0  0  0
   10.8390   14.5830   18.4660 N   0  0  0  0  0  0  0  0  0  0  0  0
   10.7780   15.0090   20.8500 C   0  0  1  0  0  0  0  0  0  0  0  0
   11.8880   15.7610   21.6120 C   0  0  0  0  0  0  0  0  0  0  0  0
   11.9530   15.2720   23.0620 C   0  0  0  0  0  0  0  0  0  0  0  0
   10.5860   15.3810   23.7320 C   0  0  0  0  0  0  0  0  0  0  0  0
    9.4330   15.1500   21.5710 C   0  0  0  0  0  0  0  0  0  0  0  0
    9.5530   14.6700   22.9550 N   0  0  0  0  0  0  0  0  0  0  0  0
    8.7680   13.6650   23.4060 C   0  0  0  0  0  0  0  0  0  0  0  0
    7.9100   13.1490   22.6880 O   0  0  0  0  0  0  0  0  0  0  0  0
    8.9550   13.2030   24.8490 C   0  0  1  0  0  0  0  0  0  0  0  0
    7.6180   12.8010   25.4500 C   0  0  0  0  0  0  0  0  0  0  0  0
    6.6560   13.7640   25.7520 C   0  0  0  0  0  0  0  0  0  0  0  0
    5.4680   13.4130   26.3960 C   0  0  0  0  0  0  0  0  0  0  0  0
    4.2380   14.6320   26.7640 S   0  0  0  0  0  0  0  0  0  0  0  0
    4.4160   15.8220   25.4420 C   0  0  0  0  0  0  0  0  0  0  0  0
    9.9960   12.0550   24.9450 C   0  0  0  0  0  0  0  0  0  0  0  0
    9.3410   10.7270   24.6520 C   0  0  0  0  0  0  0  0  0  0  0  0
    8.2300   10.4380   25.5320 O   0  0  0  0  0  0  0  0  0  0  0  0
    7.3570   11.4700   25.7980 C   0  0  0  0  0  0  0  0  0  0  0  0
    6.1900   11.1160   26.4700 C   0  0  0  0  0  0  0  0  0  0  0  0
    5.2530   12.0910   26.7720 C   0  0  0  0  0  0  0  0  0  0  0  0
 17 16  1  0
 16 15  1  0
 15 23  2  0
 23 22  1  0
 22 21  2  0
 21 13  1  0
 14 13  2  0
 15 14  1  0
 13 12  1  0
 12 10  1  6
 11 10  2  0
 10  9  1  0
  9  7  1  0
  7  6  1  0
  6  5  1  0
  5  4  1  0
  4  2  1  6
  3  2  1  0
  2  1  2  0
  8  4  1  0
  9  8  1  0
 18 12  1  0
 19 18  1  0
 20 19  1  0
 21 20  1  0
M  END
$$$$
