XX01ZVNS2B-x3465_B_203_1_XX01ZVNS2B-x4590+B+203+1__LIG
     RDKit          3D

 21 24  0  0  0  0  0  0  0  0999 V2000
   -6.5930    5.7280  -12.8680 O   0  0  0  0  0  0  0  0  0  0  0  0
   -7.3720    4.9260  -13.3680 C   0  0  0  0  0  0  0  0  0  0  0  0
   -8.1760    4.1220  -12.6350 N   0  0  0  0  0  0  0  0  0  0  0  0
   -8.2760    4.0850  -11.2220 C   0  0  0  0  0  0  0  0  0  0  0  0
   -7.9550    5.2160  -10.4740 C   0  0  0  0  0  0  0  0  0  0  0  0
   -8.0130    5.1820   -9.0910 C   0  0  0  0  0  0  0  0  0  0  0  0
   -8.3850    4.0000   -8.4650 C   0  0  0  0  0  0  0  0  0  0  0  0
   -8.6580    2.8570   -9.2020 C   0  0  0  0  0  0  0  0  0  0  0  0
   -8.6110    2.8800  -10.5910 C   0  0  0  0  0  0  0  0  0  0  0  0
   -8.9790    1.7260   -8.2670 C   0  0  0  0  0  0  0  0  0  0  0  0
   -9.2910    2.4460   -7.0250 N   0  0  0  0  0  0  0  0  0  0  0  0
   -8.5040    3.6880   -7.0010 C   0  0  0  0  0  0  0  0  0  0  0  0
   -7.4090    4.7410  -14.8530 C   0  0  0  0  0  0  0  0  0  0  0  0
   -6.3340    5.2060  -15.5950 C   0  0  0  0  0  0  0  0  0  0  0  0
   -6.3240    5.1460  -16.9780 C   0  0  0  0  0  0  0  0  0  0  0  0
   -7.4270    4.6070  -17.6360 C   0  0  0  0  0  0  0  0  0  0  0  0
   -7.5510    4.4480  -19.0250 N   0  0  0  0  0  0  0  0  0  0  0  0
   -8.7130    3.9330  -19.3100 C   0  0  0  0  0  0  0  0  0  0  0  0
   -9.7710    3.5840  -17.9750 S   0  0  0  0  0  0  0  0  0  0  0  0
   -8.5270    4.1650  -16.8910 C   0  0  0  0  0  0  0  0  0  0  0  0
   -8.5440    4.2540  -15.5040 C   0  0  0  0  0  0  0  0  0  0  0  0
  1  2  2  0
  2  3  1  0
  3  4  1  0
  4  5  2  0
  5  6  1  0
  6  7  2  0
  7  8  1  0
  8  9  2  0
  8 10  1  0
 10 11  1  0
 11 12  1  0
  2 13  1  0
 13 14  2  0
 14 15  1  0
 15 16  2  0
 16 17  1  0
 17 18  2  0
 18 19  1  0
 19 20  1  0
 20 21  2  0
  4  9  1  0
 13 21  1  0
  7 12  1  0
 16 20  1  0
M  END
$$$$
