A71EV2A-x4449_A_201_1_A71EV2A-x0911+A+147+1__LIG
     RDKit          3D

 24 25  0  0  0  0  0  0  0  0999 V2000
   10.3000   16.6260   19.2230 O   0  0  0  0  0  0  0  0  0  0  0  0
   10.7080   15.4780   19.4300 C   0  0  0  0  0  0  0  0  0  0  0  0
   10.9920   14.6260   18.4490 N   0  0  0  0  0  0  0  0  0  0  0  0
   10.8160   14.9250   20.8400 C   0  0  1  0  0  0  0  0  0  0  0  0
   11.9350   15.6100   21.6410 C   0  0  0  0  0  0  0  0  0  0  0  0
   12.0230   15.0050   23.0430 C   0  0  0  0  0  0  0  0  0  0  0  0
   10.6780   15.1030   23.7580 C   0  0  0  0  0  0  0  0  0  0  0  0
    9.4810   15.0970   21.5740 C   0  0  0  0  0  0  0  0  0  0  0  0
    9.5610   14.5830   22.9450 N   0  0  0  0  0  0  0  0  0  0  0  0
    8.6100   13.7390   23.4090 C   0  0  0  0  0  0  0  0  0  0  0  0
    7.7240   13.3140   22.6870 O   0  0  0  0  0  0  0  0  0  0  0  0
    8.6570   13.3160   24.9130 C   0  0  1  0  0  0  0  0  0  0  0  0
    8.4080   14.4670   25.7780 N   0  0  0  0  0  0  0  0  0  0  0  0
    9.2320   14.8050   26.7830 C   0  0  0  0  0  0  0  0  0  0  0  0
   10.2920   14.2150   26.9860 O   0  0  0  0  0  0  0  0  0  0  0  0
    8.7720   15.9250   27.6670 C   0  0  0  0  0  0  0  0  0  0  0  0
    7.7030   12.1600   25.1990 C   0  0  0  0  0  0  0  0  0  0  0  0
    7.9630   10.8670   24.7230 C   0  0  0  0  0  0  0  0  0  0  0  0
    9.0720   10.7500   23.9280 O   0  0  0  0  0  0  0  0  0  0  0  0
    9.5280    9.4350   23.5920 C   0  0  0  0  0  0  0  0  0  0  0  0
    6.5680   12.3540   25.9840 C   0  0  0  0  0  0  0  0  0  0  0  0
    5.7240   11.3000   26.2950 C   0  0  0  0  0  0  0  0  0  0  0  0
    5.9980   10.0360   25.8260 C   0  0  0  0  0  0  0  0  0  0  0  0
    7.1230    9.8080   25.0480 C   0  0  0  0  0  0  0  0  0  0  0  0
 20 19  1  0
 19 18  1  0
 18 24  2  0
 24 23  1  0
 23 22  2  0
 22 21  1  0
 21 17  2  0
 18 17  1  0
 17 12  1  0
 12 13  1  1
 14 13  1  0
 16 14  1  0
 15 14  2  0
 12 10  1  0
 11 10  2  0
 10  9  1  0
  9  7  1  0
  7  6  1  0
  6  5  1  0
  5  4  1  0
  4  2  1  6
  3  2  1  0
  2  1  2  0
  8  4  1  0
  9  8  1  0
M  END
$$$$
