A71EV2A-x4421_A_201_1_A71EV2A-x0911+A+147+1__LIG
     RDKit          3D

 19 20  0  0  0  0  0  0  0  0999 V2000
   10.3110   16.4510   19.3420 O   0  0  0  0  0  0  0  0  0  0  0  0
   10.8910   15.3660   19.4690 C   0  0  0  0  0  0  0  0  0  0  0  0
   11.2570   14.6130   18.4360 N   0  0  0  0  0  0  0  0  0  0  0  0
   11.1520   14.7750   20.8440 C   0  0  1  0  0  0  0  0  0  0  0  0
   11.8920   15.6950   21.8340 C   0  0  0  0  0  0  0  0  0  0  0  0
   11.6340   15.0250   23.1810 C   0  0  0  0  0  0  0  0  0  0  0  0
    9.8480   14.5030   21.6140 C   0  0  0  0  0  0  0  0  0  0  0  0
   10.2920   14.4600   23.0150 N   0  0  0  0  0  0  0  0  0  0  0  0
    9.5610   13.9810   24.0420 C   0  0  0  0  0  0  0  0  0  0  0  0
    9.9910   13.9570   25.1920 O   0  0  0  0  0  0  0  0  0  0  0  0
    8.1630   13.4970   23.6960 C   0  0  0  0  0  0  0  0  0  0  0  0
    7.6400   12.4580   24.6650 C   0  0  0  0  0  0  0  0  0  0  0  0
    7.9200   11.1040   24.4740 C   0  0  0  0  0  0  0  0  0  0  0  0
    8.8080   10.8310   23.4670 O   0  0  0  0  0  0  0  0  0  0  0  0
    9.2210    9.4600   23.2830 C   0  0  0  0  0  0  0  0  0  0  0  0
    6.7460   12.7630   25.6770 C   0  0  0  0  0  0  0  0  0  0  0  0
    6.1080   11.8600   26.4340 N   0  0  0  0  0  0  0  0  0  0  0  0
    6.3850   10.5750   26.2040 C   0  0  0  0  0  0  0  0  0  0  0  0
    7.2860   10.1430   25.2500 C   0  0  0  0  0  0  0  0  0  0  0  0
 15 14  1  0
 14 13  1  0
 13 19  2  0
 19 18  1  0
 18 17  2  0
 17 16  1  0
 16 12  2  0
 13 12  1  0
 12 11  1  0
 11  9  1  0
 10  9  2  0
  9  8  1  0
  8  6  1  0
  6  5  1  0
  5  4  1  0
  4  2  1  6
  3  2  1  0
  2  1  2  0
  7  4  1  0
  8  7  1  0
M  END
$$$$
