XX01ZVNS2B-x4959_B_203_5_XX01ZVNS2B-x4590+B+203+1__LIG
     RDKit          3D

 24 27  0  0  0  0  0  0  0  0999 V2000
  -10.0530    3.8730  -17.6530 F   0  0  0  0  0  0  0  0  0  0  0  0
   -8.8760    4.1770  -17.0380 C   0  0  0  0  0  0  0  0  0  0  0  0
   -8.8490    4.2260  -15.6630 C   0  0  0  0  0  0  0  0  0  0  0  0
   -7.7760    4.4290  -17.8280 C   0  0  0  0  0  0  0  0  0  0  0  0
   -6.5740    4.7540  -17.2000 C   0  0  0  0  0  0  0  0  0  0  0  0
   -5.3560    4.9960  -18.0000 C   0  0  0  0  0  0  0  0  0  0  0  0
   -5.2730    5.2690  -19.3490 C   0  0  0  0  0  0  0  0  0  0  0  0
   -3.9830    5.4620  -19.6450 N   0  0  0  0  0  0  0  0  0  0  0  0
   -3.1950    5.3350  -18.5530 N   0  0  0  0  0  0  0  0  0  0  0  0
   -4.0220    5.0430  -17.5550 C   0  0  0  0  0  0  0  0  0  0  0  0
   -6.5160    4.8210  -15.8070 C   0  0  0  0  0  0  0  0  0  0  0  0
   -7.6490    4.5600  -15.0380 C   0  0  0  0  0  0  0  0  0  0  0  0
   -7.5240    4.7210  -13.5540 C   0  0  0  0  0  0  0  0  0  0  0  0
   -6.6680    5.4610  -13.0680 O   0  0  0  0  0  0  0  0  0  0  0  0
   -8.4010    4.0150  -12.8020 N   0  0  0  0  0  0  0  0  0  0  0  0
   -8.4990    4.0290  -11.3820 C   0  0  0  0  0  0  0  0  0  0  0  0
   -8.7060    2.8290  -10.7090 C   0  0  0  0  0  0  0  0  0  0  0  0
   -8.7870    2.8060   -9.3170 C   0  0  0  0  0  0  0  0  0  0  0  0
   -9.0950    1.6670   -8.3880 C   0  0  0  0  0  0  0  0  0  0  0  0
   -8.7370    2.2400   -7.0860 N   0  0  0  0  0  0  0  0  0  0  0  0
   -8.7830    3.7100   -7.1260 C   0  0  0  0  0  0  0  0  0  0  0  0
   -8.6410    3.9850   -8.5950 C   0  0  0  0  0  0  0  0  0  0  0  0
   -8.4270    5.1850   -9.2650 C   0  0  0  0  0  0  0  0  0  0  0  0
   -8.3680    5.2110  -10.6520 C   0  0  0  0  0  0  0  0  0  0  0  0
 14 13  2  0
 15 13  1  0
 16 15  1  0
 16 24  2  0
 24 23  1  0
 23 22  2  0
 22 18  1  0
 18 17  2  0
 17 16  1  0
 19 18  1  0
 20 19  1  0
 21 20  1  0
 22 21  1  0
 13 12  1  0
 12  3  1  0
  3  2  2  0
  2  1  1  0
  4  2  1  0
  5  4  2  0
  6  5  1  0
  6 10  1  0
 10  9  2  0
  9  8  1  0
  8  7  1  0
  7  6  2  0
 11  5  1  0
 12 11  2  0
M  END
$$$$
