XX01ZVNS2B-x1682_B_301_1_XX01ZVNS2B-x4590+B+203+1__LIG
     RDKit          3D

 16 17  0  0  0  0  0  0  0  0999 V2000
   -5.8080    4.8890  -20.1650 N   0  0  0  0  0  0  0  0  0  0  0  0
   -5.6560    4.8760  -18.7900 C   0  0  0  0  0  0  0  0  0  0  0  0
   -4.4110    5.1210  -18.2350 C   0  0  0  0  0  0  0  0  0  0  0  0
   -4.2890    5.1020  -16.8380 C   0  0  0  0  0  0  0  0  0  0  0  0
   -5.2740    4.8610  -15.9950 N   0  0  0  0  0  0  0  0  0  0  0  0
   -6.5200    4.6160  -16.5080 C   0  0  0  0  0  0  0  0  0  0  0  0
   -7.6080    4.3640  -15.6190 C   0  0  0  0  0  0  0  0  0  0  0  0
   -8.8530    4.1010  -16.1120 C   0  0  0  0  0  0  0  0  0  0  0  0
   -9.0860    4.0990  -17.4950 C   0  0  0  0  0  0  0  0  0  0  0  0
   -8.0730    4.3440  -18.3700 C   0  0  0  0  0  0  0  0  0  0  0  0
   -6.7630    4.6100  -17.9120 C   0  0  0  0  0  0  0  0  0  0  0  0
   -7.3070    4.3630  -14.2780 O   0  0  0  0  0  0  0  0  0  0  0  0
   -7.4540    5.5760  -13.5380 C   0  0  0  0  0  0  0  0  0  0  0  0
   -6.8040    6.5910  -14.0810 F   0  0  0  0  0  0  0  0  0  0  0  0
   -8.7220    5.9330  -13.4280 F   0  0  0  0  0  0  0  0  0  0  0  0
   -6.9690    5.4460  -12.3160 F   0  0  0  0  0  0  0  0  0  0  0  0
  1  2  1  0
  2  3  2  0
  3  4  1  0
  4  5  2  0
  5  6  1  0
  6  7  2  0
  7  8  1  0
  8  9  2  0
  9 10  1  0
 10 11  2  0
  7 12  1  0
 12 13  1  0
 13 14  1  0
 13 15  1  0
 13 16  1  0
  2 11  1  0
  6 11  1  0
M  END
$$$$
