A71EV2A-x4305_A_201_1_A71EV2A-x0911+A+147+1__LIG
     RDKit          3D

 22 23  0  0  0  0  0  0  0  0999 V2000
   10.1700   16.5100   19.1370 O   0  0  0  0  0  0  0  0  0  0  0  0
   10.6120   15.3820   19.3940 C   0  0  0  0  0  0  0  0  0  0  0  0
   11.1410   14.5830   18.4730 N   0  0  0  0  0  0  0  0  0  0  0  0
   10.5540   14.8180   20.8010 C   0  0  1  0  0  0  0  0  0  0  0  0
   11.6440   15.4140   21.7140 C   0  0  0  0  0  0  0  0  0  0  0  0
   11.5910   14.7820   23.1070 C   0  0  0  0  0  0  0  0  0  0  0  0
   10.1990   14.9270   23.7090 C   0  0  0  0  0  0  0  0  0  0  0  0
    9.1940   15.0510   21.4610 C   0  0  0  0  0  0  0  0  0  0  0  0
    9.1760   14.4130   22.7820 N   0  0  0  0  0  0  0  0  0  0  0  0
    8.1380   13.6130   23.1460 C   0  0  0  0  0  0  0  0  0  0  0  0
    7.3160   13.2380   22.3270 O   0  0  0  0  0  0  0  0  0  0  0  0
    8.0400   13.3270   24.4780 N   0  0  0  0  0  0  0  0  0  0  0  0
    7.0660   12.5430   25.1470 C   0  0  0  0  0  0  0  0  0  0  0  0
    6.1350   13.0920   26.0280 C   0  0  0  0  0  0  0  0  0  0  0  0
    5.3540   12.2550   26.8110 C   0  0  0  0  0  0  0  0  0  0  0  0
    5.4830   10.8790   26.7120 C   0  0  0  0  0  0  0  0  0  0  0  0
    6.3860   10.3190   25.8210 C   0  0  0  0  0  0  0  0  0  0  0  0
    7.1630   11.1480   25.0320 C   0  0  0  0  0  0  0  0  0  0  0  0
    8.0050   10.7070   24.0380 O   0  0  0  0  0  0  0  0  0  0  0  0
    9.1290    9.8570   24.3740 C   0  0  0  0  0  0  0  0  0  0  0  0
    9.4230    8.9160   23.2500 C   0  0  0  0  0  0  0  0  0  0  0  0
   10.2800   10.7490   24.6860 C   0  0  0  0  0  0  0  0  0  0  0  0
 22 20  1  0
 21 20  1  0
 20 19  1  0
 19 18  1  0
 18 17  1  0
 17 16  2  0
 16 15  1  0
 15 14  2  0
 14 13  1  0
 18 13  2  0
 13 12  1  0
 12 10  1  0
 11 10  2  0
 10  9  1  0
  9  7  1  0
  7  6  1  0
  6  5  1  0
  5  4  1  0
  4  2  1  6
  3  2  1  0
  2  1  2  0
  8  4  1  0
  9  8  1  0
M  END
$$$$
