A71EV2A-x4845_A_201_2_A71EV2A-x0911+A+147+1__LIG
     RDKit          3D

 23 24  0  0  0  0  0  0  0  0999 V2000
   10.2300   16.5310   18.9720 O   0  0  0  0  0  0  0  0  0  0  0  0
   10.6460   15.4010   19.2390 C   0  0  0  0  0  0  0  0  0  0  0  0
   11.1540   14.5860   18.3240 N   0  0  0  0  0  0  0  0  0  0  0  0
   10.6000   14.8620   20.6590 C   0  0  1  0  0  0  0  0  0  0  0  0
   11.6830   15.5010   21.5250 C   0  0  0  0  0  0  0  0  0  0  0  0
   11.6650   14.8990   22.9220 C   0  0  0  0  0  0  0  0  0  0  0  0
   10.2870   15.0120   23.5490 C   0  0  0  0  0  0  0  0  0  0  0  0
    9.2450   15.0830   21.3290 C   0  0  0  0  0  0  0  0  0  0  0  0
    9.2390   14.4860   22.6650 N   0  0  0  0  0  0  0  0  0  0  0  0
    8.3380   13.5930   23.1070 C   0  0  0  0  0  0  0  0  0  0  0  0
    7.4150   13.2020   22.4160 O   0  0  0  0  0  0  0  0  0  0  0  0
    8.5000   13.1450   24.5450 C   0  0  0  0  0  0  0  0  0  0  0  0
    7.2280   12.5030   25.0490 C   0  0  0  0  0  0  0  0  0  0  0  0
    7.0340   11.1280   25.0820 C   0  0  0  0  0  0  0  0  0  0  0  0
    8.3980    9.9420   24.5460 Br  0  0  0  0  0  0  0  0  0  0  0  0
    5.8560   10.5590   25.4960 C   0  0  0  0  0  0  0  0  0  0  0  0
    6.1680   13.3070   25.4590 C   0  0  0  0  0  0  0  0  0  0  0  0
    4.9770   12.7560   25.8850 C   0  0  0  0  0  0  0  0  0  0  0  0
    3.8990   13.4700   26.3220 O   0  0  0  0  0  0  0  0  0  0  0  0
    4.1210   14.8320   26.6810 C   0  0  0  0  0  0  0  0  0  0  0  0
    4.8290   11.3640   25.9100 C   0  0  0  0  0  0  0  0  0  0  0  0
    3.6830   10.8920   26.4610 O   0  0  0  0  0  0  0  0  0  0  0  0
    3.7780    9.6510   27.1140 C   0  0  0  0  0  0  0  0  0  0  0  0
 23 22  1  0
 22 21  1  0
 21 16  1  0
 16 14  2  0
 15 14  1  0
 14 13  1  0
 13 12  1  0
 12 10  1  0
 11 10  2  0
 10  9  1  0
  9  7  1  0
  7  6  1  0
  6  5  1  0
  5  4  1  0
  4  2  1  6
  3  2  1  0
  2  1  2  0
  8  4  1  0
  9  8  1  0
 17 13  2  0
 18 17  1  0
 21 18  2  0
 19 18  1  0
 20 19  1  0
M  END
$$$$
