A71EV2A-x0922_A_147_1_A71EV2A-x0525+A+246+1__LIG
     RDKit          3D

 14 14  0  0  0  0  0  0  0  0999 V2000
    9.1160   13.7820   21.7680 O   0  0  0  0  0  0  0  0  0  0  0  0
   10.2930   14.1070   21.8090 C   0  0  0  0  0  0  0  0  0  0  0  0
   10.7210   15.2670   21.2830 N   0  0  0  0  0  0  0  0  0  0  0  0
    9.7930   16.1750   20.6150 C   0  0  0  0  0  0  0  0  0  0  0  0
   12.1150   15.6970   21.2930 C   0  0  0  0  0  0  0  0  0  0  0  0
   11.3140   13.1860   22.4570 C   0  0  0  0  0  0  0  0  0  0  0  0
   10.7310   11.9170   22.7550 O   0  0  0  0  0  0  0  0  0  0  0  0
    9.9420   11.7840   23.8720 C   0  0  0  0  0  0  0  0  0  0  0  0
    9.5930   10.4630   24.1560 C   0  0  0  0  0  0  0  0  0  0  0  0
   10.1750    9.3150   23.3730 C   0  0  0  0  0  0  0  0  0  0  0  0
    8.7220   10.2370   25.2170 C   0  0  0  0  0  0  0  0  0  0  0  0
    8.2370   11.2810   25.9820 C   0  0  0  0  0  0  0  0  0  0  0  0
    8.6100   12.5750   25.6970 C   0  0  0  0  0  0  0  0  0  0  0  0
    9.4630   12.8380   24.6390 C   0  0  0  0  0  0  0  0  0  0  0  0
  5  3  1  0
  4  3  1  0
  3  2  1  0
  2  1  2  0
  6  2  1  0
  7  6  1  0
  8  7  1  0
  8 14  2  0
 14 13  1  0
 13 12  2  0
 12 11  1  0
 11  9  2  0
  9  8  1  0
 10  9  1  0
M  END
$$$$
