A71EV2A-x3371_A_201_1_A71EV2A-x0911+A+147+1__LIG
     RDKit          3D

 21 23  0  0  0  0  0  0  0  0999 V2000
    9.3670   14.5150   23.8750 O   0  0  0  0  0  0  0  0  0  0  0  0
    9.6930   13.5050   23.2580 C   0  0  0  0  0  0  0  0  0  0  0  0
    9.1820   12.1200   23.6820 C   0  0  0  0  0  0  0  0  0  0  0  0
    8.1510   11.7630   24.6350 C   0  0  0  0  0  0  0  0  0  0  0  0
    7.3050   12.4360   25.5090 C   0  0  0  0  0  0  0  0  0  0  0  0
    6.3310   11.7280   26.2040 C   0  0  0  0  0  0  0  0  0  0  0  0
    6.2010   10.3540   26.0460 C   0  0  0  0  0  0  0  0  0  0  0  0
    7.0510    9.6640   25.1960 C   0  0  0  0  0  0  0  0  0  0  0  0
    8.0170   10.3770   24.5000 C   0  0  0  0  0  0  0  0  0  0  0  0
    8.9090    9.9820   23.5530 N   0  0  0  0  0  0  0  0  0  0  0  0
    9.1060    8.6430   23.0210 C   0  0  0  0  0  0  0  0  0  0  0  0
    9.6360   11.0380   23.0550 N   0  0  0  0  0  0  0  0  0  0  0  0
   10.4600   13.5340   22.1660 N   0  0  0  0  0  0  0  0  0  0  0  0
   10.9280   14.7700   21.5470 C   0  0  0  0  0  0  0  0  0  0  0  0
   12.4400   14.8440   21.5050 C   0  0  0  0  0  0  0  0  0  0  0  0
   12.9620   15.9950   20.6980 C   0  0  0  0  0  0  0  0  0  0  0  0
   12.8110   16.0350   19.3270 N   0  0  0  0  0  0  0  0  0  0  0  0
   13.3530   17.1690   18.9520 C   0  0  0  0  0  0  0  0  0  0  0  0
   13.6130   17.1190   21.1070 C   0  0  0  0  0  0  0  0  0  0  0  0
   13.8520   17.8570   19.9850 N   0  0  0  0  0  0  0  0  0  0  0  0
   14.5120   19.1590   19.9260 C   0  0  0  0  0  0  0  0  0  0  0  0
 21 20  1  0
 20 18  1  0
 18 17  2  0
 17 16  1  0
 16 15  1  0
 15 14  1  0
 14 13  1  0
 13  2  1  0
  2  1  2  0
  3  2  1  0
  3 12  2  0
 12 10  1  0
 11 10  1  0
 10  9  1  0
  9  8  1  0
  8  7  2  0
  7  6  1  0
  6  5  2  0
  5  4  1  0
  4  3  1  0
  9  4  2  0
 19 16  2  0
 20 19  1  0
M  END
$$$$
