XX01ZVNS2B-x3746_B_203_1_XX01ZVNS2B-x4590+B+203+1__LIG
     RDKit          3D

 21 23  0  0  0  0  0  0  0  0999 V2000
   -4.0040    5.3120  -18.8110 O   0  0  0  0  0  0  0  0  0  0  0  0
   -5.1100    5.1470  -18.3000 C   0  0  0  0  0  0  0  0  0  0  0  0
   -6.2470    4.8190  -18.9700 N   0  0  0  0  0  0  0  0  0  0  0  0
   -7.3090    4.5870  -18.0990 C   0  0  0  0  0  0  0  0  0  0  0  0
   -8.5980    4.1520  -18.3840 C   0  0  0  0  0  0  0  0  0  0  0  0
   -9.4860    3.9730  -17.3340 C   0  0  0  0  0  0  0  0  0  0  0  0
   -9.0950    4.2190  -16.0240 C   0  0  0  0  0  0  0  0  0  0  0  0
   -5.4470    5.2010  -16.8250 C   0  0  0  0  0  0  0  0  0  0  0  0
   -6.8980    4.8280  -16.7930 C   0  0  0  0  0  0  0  0  0  0  0  0
   -7.8010    4.6490  -15.7350 C   0  0  0  0  0  0  0  0  0  0  0  0
   -7.4310    4.9180  -14.3010 C   0  0  0  0  0  0  0  0  0  0  0  0
   -6.4110    5.5360  -14.0080 O   0  0  0  0  0  0  0  0  0  0  0  0
   -8.3100    4.4560  -13.3780 N   0  0  0  0  0  0  0  0  0  0  0  0
   -8.2470    4.5940  -11.9720 C   0  0  0  0  0  0  0  0  0  0  0  0
   -7.8160    5.7790  -11.3970 C   0  0  0  0  0  0  0  0  0  0  0  0
   -7.8240    5.9160  -10.0210 C   0  0  0  0  0  0  0  0  0  0  0  0
   -8.2630    4.8750   -9.2170 C   0  0  0  0  0  0  0  0  0  0  0  0
   -8.6890    3.5540  -11.1590 C   0  0  0  0  0  0  0  0  0  0  0  0
   -8.7180    3.6910   -9.7760 C   0  0  0  0  0  0  0  0  0  0  0  0
   -9.3550    2.6320   -8.9110 C   0  0  0  0  0  0  0  0  0  0  0  0
   -8.3970    1.6150   -8.5050 N   0  0  0  0  0  0  0  0  0  0  0  0
 21 20  1  0
 20 19  1  0
 19 17  2  0
 17 16  1  0
 16 15  2  0
 15 14  1  0
 14 13  1  0
 13 11  1  0
 12 11  2  0
 11 10  1  0
 10  7  2  0
  7  6  1  0
  6  5  2  0
  5  4  1  0
  4  9  2  0
 10  9  1  0
  9  8  1  0
  8  2  1  0
  2  1  2  0
  3  2  1  0
  4  3  1  0
 18 14  2  0
 19 18  1  0
M  END
$$$$
