A71EV2A-x4416_A_201_1_A71EV2A-x0911+A+147+1__LIG
     RDKit          3D

 25 27  0  0  0  0  0  0  0  0999 V2000
    9.0710    7.6330   23.1030 F   0  0  0  0  0  0  0  0  0  0  0  0
    8.9370    8.9200   23.6050 C   0  0  0  0  0  0  0  0  0  0  0  0
    8.1510    9.1030   24.7040 C   0  0  0  0  0  0  0  0  0  0  0  0
    8.0410   10.3770   25.2310 C   0  0  0  0  0  0  0  0  0  0  0  0
    9.6080    9.9530   22.9920 C   0  0  0  0  0  0  0  0  0  0  0  0
    9.4530   11.2300   23.5090 C   0  0  0  0  0  0  0  0  0  0  0  0
    8.6700   11.4640   24.6350 C   0  0  0  0  0  0  0  0  0  0  0  0
    8.4710   12.8620   25.1790 C   0  0  0  0  0  0  0  0  0  0  0  0
    7.3050   13.6830   24.6010 C   0  0  2  0  0  0  0  0  0  0  0  0
    7.2320   14.9230   25.3510 O   0  0  0  0  0  0  0  0  0  0  0  0
    5.9680   15.3960   25.8530 C   0  0  0  0  0  0  0  0  0  0  0  0
    4.8290   15.1690   24.8810 C   0  0  0  0  0  0  0  0  0  0  0  0
    4.7700   13.7370   24.3580 C   0  0  0  0  0  0  0  0  0  0  0  0
    5.9920   12.9190   24.7760 C   0  0  0  0  0  0  0  0  0  0  0  0
    7.6470   13.9370   23.1130 C   0  0  0  0  0  0  0  0  0  0  0  0
    6.9660   13.3610   22.2850 O   0  0  0  0  0  0  0  0  0  0  0  0
    8.5900   14.8430   22.7540 N   0  0  0  0  0  0  0  0  0  0  0  0
    9.4690   15.6470   23.6220 C   0  0  0  0  0  0  0  0  0  0  0  0
   10.9320   15.4410   23.2950 C   0  0  0  0  0  0  0  0  0  0  0  0
   11.2110   15.7220   21.8210 C   0  0  0  0  0  0  0  0  0  0  0  0
    8.7920   15.1930   21.3430 C   0  0  0  0  0  0  0  0  0  0  0  0
   10.2350   14.9580   20.9010 C   0  0  1  0  0  0  0  0  0  0  0  0
   10.3880   15.3990   19.4540 C   0  0  0  0  0  0  0  0  0  0  0  0
   10.0800   16.5480   19.1000 O   0  0  0  0  0  0  0  0  0  0  0  0
   10.8400   14.4780   18.6190 N   0  0  0  0  0  0  0  0  0  0  0  0
 25 23  1  0
 24 23  2  0
 22 23  1  6
 22 20  1  0
 20 19  1  0
 19 18  1  0
 18 17  1  0
 17 15  1  0
 16 15  2  0
 15  9  1  0
  9  8  1  1
  8  7  1  0
  7  4  2  0
  4  3  1  0
  3  2  2  0
  2  1  1  0
  5  2  1  0
  6  5  2  0
  7  6  1  0
  9 14  1  0
 14 13  1  0
 13 12  1  0
 12 11  1  0
 11 10  1  0
 10  9  1  0
 21 17  1  0
 22 21  1  0
M  END
$$$$
