XX01ZVNS2B-x3617_B_203_1_XX01ZVNS2B-x4590+B+203+1__LIG
     RDKit          3D

 30 35  0  0  0  0  0  0  0  0999 V2000
  -10.3950    3.9530  -17.9990 Cl  0  0  0  0  0  0  0  0  0  0  0  0
   -8.8660    4.2750  -17.2370 C   0  0  0  0  0  0  0  0  0  0  0  0
   -8.7910    4.2710  -15.8530 C   0  0  0  0  0  0  0  0  0  0  0  0
   -7.7730    4.5560  -18.0340 C   0  0  0  0  0  0  0  0  0  0  0  0
   -6.5670    4.8560  -17.4160 C   0  0  0  0  0  0  0  0  0  0  0  0
   -6.4620    4.8570  -16.0240 C   0  0  0  0  0  0  0  0  0  0  0  0
   -5.1490    5.1440  -15.6590 N   0  0  0  0  0  0  0  0  0  0  0  0
   -4.5080    5.3170  -16.8050 C   0  0  0  0  0  0  0  0  0  0  0  0
   -3.0920    5.6600  -16.9040 C   0  0  0  0  0  0  0  0  0  0  0  0
   -2.2610    5.6170  -15.8530 N   0  0  0  0  0  0  0  0  0  0  0  0
   -1.0490    6.0340  -16.3590 N   0  0  0  0  0  0  0  0  0  0  0  0
   -1.1120    6.3310  -17.6670 C   0  0  0  0  0  0  0  0  0  0  0  0
    0.0290    6.8600  -18.4530 C   0  0  0  0  0  0  0  0  0  0  0  0
    0.3080    6.3560  -19.8490 C   0  0  0  0  0  0  0  0  0  0  0  0
   -0.2090    7.7360  -19.6610 C   0  0  0  0  0  0  0  0  0  0  0  0
   -2.4270    6.0890  -18.0630 C   0  0  0  0  0  0  0  0  0  0  0  0
   -5.3090    5.1560  -17.8930 N   0  0  0  0  0  0  0  0  0  0  0  0
   -7.5810    4.5730  -15.2280 C   0  0  0  0  0  0  0  0  0  0  0  0
   -7.4740    4.6390  -13.7330 C   0  0  0  0  0  0  0  0  0  0  0  0
   -6.5250    5.2120  -13.2010 O   0  0  0  0  0  0  0  0  0  0  0  0
   -8.4610    4.0380  -13.0230 N   0  0  0  0  0  0  0  0  0  0  0  0
   -8.5630    3.9940  -11.6060 C   0  0  0  0  0  0  0  0  0  0  0  0
   -8.8160    2.8010  -10.9330 C   0  0  0  0  0  0  0  0  0  0  0  0
   -8.8710    2.7790   -9.5430 C   0  0  0  0  0  0  0  0  0  0  0  0
   -9.1620    1.6320   -8.6200 C   0  0  0  0  0  0  0  0  0  0  0  0
   -8.9340    2.2210   -7.3070 N   0  0  0  0  0  0  0  0  0  0  0  0
   -8.7860    3.6800   -7.3460 C   0  0  0  0  0  0  0  0  0  0  0  0
   -8.6620    3.9430   -8.8180 C   0  0  0  0  0  0  0  0  0  0  0  0
   -8.4050    5.1330   -9.4890 C   0  0  0  0  0  0  0  0  0  0  0  0
   -8.3630    5.1620  -10.8720 C   0  0  0  0  0  0  0  0  0  0  0  0
 20 19  2  0
 21 19  1  0
 22 21  1  0
 22 30  2  0
 30 29  1  0
 29 28  2  0
 28 24  1  0
 24 23  2  0
 23 22  1  0
 25 24  1  0
 26 25  1  0
 27 26  1  0
 28 27  1  0
 19 18  1  0
 18  3  1  0
  3  2  2  0
  2  1  1  0
  4  2  1  0
  5  4  2  0
  5 17  1  0
 17  8  1  0
  9  8  1  0
  9 16  1  0
 16 12  2  0
 13 12  1  0
 13 15  1  0
 15 14  1  0
 14 13  1  0
 12 11  1  0
 11 10  1  0
 10  9  2  0
  8  7  2  0
  7  6  1  0
 18  6  2  0
  6  5  1  0
M  END
$$$$
