A71EV2A-x4580_A_201_1_A71EV2A-x0911+A+147+1__LIG
     RDKit          3D

 22 24  0  0  0  0  0  0  0  0999 V2000
    9.4700    8.8670   23.4100 Br  0  0  0  0  0  0  0  0  0  0  0  0
    8.3550    9.9810   24.4500 C   0  0  0  0  0  0  0  0  0  0  0  0
    7.1580    9.4750   25.0070 C   0  0  0  0  0  0  0  0  0  0  0  0
    6.3900   10.2740   25.8050 C   0  0  0  0  0  0  0  0  0  0  0  0
    8.7280   11.2700   24.6300 C   0  0  0  0  0  0  0  0  0  0  0  0
    7.9120   12.0940   25.3800 N   0  0  0  0  0  0  0  0  0  0  0  0
    6.7590   11.6250   26.0090 C   0  0  0  0  0  0  0  0  0  0  0  0
    6.2630   12.7250   26.6690 C   0  0  0  0  0  0  0  0  0  0  0  0
    7.0490   13.8390   26.4560 N   0  0  0  0  0  0  0  0  0  0  0  0
    8.0170   13.4230   25.6560 C   0  0  0  0  0  0  0  0  0  0  0  0
    9.0760   14.2810   25.0750 C   0  0  0  0  0  0  0  0  0  0  0  0
    8.8760   14.4720   23.5820 C   0  0  0  0  0  0  0  0  0  0  0  0
    7.9920   13.9120   22.9430 O   0  0  0  0  0  0  0  0  0  0  0  0
    9.7460   15.3190   23.0030 N   0  0  0  0  0  0  0  0  0  0  0  0
   10.9570   15.8640   23.6410 C   0  0  0  0  0  0  0  0  0  0  0  0
   12.2000   15.4280   22.8830 C   0  0  0  0  0  0  0  0  0  0  0  0
   12.0930   15.8330   21.4070 C   0  0  0  0  0  0  0  0  0  0  0  0
    9.5810   15.6750   21.5890 C   0  0  0  0  0  0  0  0  0  0  0  0
   10.8090   15.2310   20.7910 C   0  0  1  0  0  0  0  0  0  0  0  0
   10.6530   15.6410   19.3360 C   0  0  0  0  0  0  0  0  0  0  0  0
   10.3620   16.8000   19.0220 O   0  0  0  0  0  0  0  0  0  0  0  0
   10.8420   14.6840   18.4290 N   0  0  0  0  0  0  0  0  0  0  0  0
 22 20  1  0
 21 20  2  0
 19 20  1  6
 19 17  1  0
 17 16  1  0
 16 15  1  0
 15 14  1  0
 14 12  1  0
 13 12  2  0
 12 11  1  0
 11 10  1  0
 10  9  2  0
  9  8  1  0
  8  7  2  0
  7  4  1  0
  4  3  2  0
  3  2  1  0
  2  1  1  0
  5  2  2  0
  6  5  1  0
 10  6  1  0
  7  6  1  0
 18 14  1  0
 19 18  1  0
M  END
$$$$
