XX01ZVNS2B-x0875_B_301_1_XX01ZVNS2B-x4590+B+203+1__LIG
     RDKit          3D

 15 16  0  0  0  0  0  0  0  0999 V2000
   -6.5890    4.1440  -19.8360 Cl  0  0  0  0  0  0  0  0  0  0  0  0
   -7.6930    4.5730  -18.5710 C   0  0  0  0  0  0  0  0  0  0  0  0
   -8.9920    4.1010  -18.6020 C   0  0  0  0  0  0  0  0  0  0  0  0
   -9.8030    4.1610  -17.5480 N   0  0  0  0  0  0  0  0  0  0  0  0
   -9.2670    4.6950  -16.4530 C   0  0  0  0  0  0  0  0  0  0  0  0
   -8.0370    5.1890  -16.2910 N   0  0  0  0  0  0  0  0  0  0  0  0
   -7.2580    5.1310  -17.3780 C   0  0  0  0  0  0  0  0  0  0  0  0
   -6.0280    5.7160  -17.2890 N   0  0  0  0  0  0  0  0  0  0  0  0
   -5.6200    6.8120  -18.1600 C   0  0  0  0  0  0  0  0  0  0  0  0
   -5.0710    5.3110  -16.2690 C   0  0  0  0  0  0  0  0  0  0  0  0
   -5.1360    6.1650  -15.0100 C   0  0  2  0  0  0  0  0  0  0  0  0
   -3.8410    6.9670  -14.8060 C   0  0  0  0  0  0  0  0  0  0  0  0
   -3.1930    6.4360  -13.6560 O   0  0  0  0  0  0  0  0  0  0  0  0
   -4.2340    5.9940  -12.8020 C   0  0  0  0  0  0  0  0  0  0  0  0
   -5.2290    5.3360  -13.7190 C   0  0  0  0  0  0  0  0  0  0  0  0
  9  8  1  0
 10  8  1  0
 11 10  1  6
 11 15  1  0
 15 14  1  0
 14 13  1  0
 13 12  1  0
 12 11  1  0
  8  7  1  0
  7  6  2  0
  6  5  1  0
  5  4  2  0
  4  3  1  0
  3  2  2  0
  7  2  1  0
  2  1  1  0
M  END
$$$$
