XX01ZVNS2B-x0490_B_301_1_XX01ZVNS2B-x4590+B+203+1__LIG
     RDKit          3D

 11 12  0  0  0  0  0  0  0  0999 V2000
   -3.2790    4.7320  -17.1990 C   0  0  0  0  0  0  0  0  0  0  0  0
   -4.6000    5.3000  -16.7330 C   0  0  0  0  0  0  0  0  0  0  0  0
   -5.6740    5.1070  -17.7360 N   0  0  0  0  0  0  0  0  0  0  0  0
   -7.0080    4.8560  -17.4580 C   0  0  0  0  0  0  0  0  0  0  0  0
   -7.6340    4.7580  -18.6990 C   0  0  0  0  0  0  0  0  0  0  0  0
   -6.7020    4.9550  -19.7240 N   0  0  0  0  0  0  0  0  0  0  0  0
   -5.5690    5.1470  -19.0970 C   0  0  0  0  0  0  0  0  0  0  0  0
   -7.6940    4.6670  -16.2650 C   0  0  0  0  0  0  0  0  0  0  0  0
   -9.0480    4.3730  -16.3440 C   0  0  0  0  0  0  0  0  0  0  0  0
   -9.6920    4.2760  -17.5780 C   0  0  0  0  0  0  0  0  0  0  0  0
   -8.9940    4.4600  -18.7620 C   0  0  0  0  0  0  0  0  0  0  0  0
  2  1  1  0
  3  2  1  0
  3  7  1  0
  7  6  2  0
  6  5  1  0
  5 11  2  0
 11 10  1  0
 10  9  2  0
  9  8  1  0
  8  4  2  0
  4  3  1  0
  5  4  1  0
M  END
$$$$
