XX01ZVNS2B-x1046_B_301_1_XX01ZVNS2B-x4590+B+203+1__LIG
     RDKit          3D

 16 16  0  0  0  0  0  0  0  0999 V2000
   -0.5590    5.8080  -26.2090 O   0  0  0  0  0  0  0  0  0  0  0  0
   -0.1760    5.1310  -25.2460 C   0  0  0  0  0  0  0  0  0  0  0  0
    1.2160    4.5670  -25.1650 C   0  0  0  0  0  0  0  0  0  0  0  0
   -0.9760    4.8190  -24.2050 N   0  0  0  0  0  0  0  0  0  0  0  0
   -2.3250    5.1590  -23.9900 C   0  0  0  0  0  0  0  0  0  0  0  0
   -2.9680    4.5860  -22.9030 C   0  0  0  0  0  0  0  0  0  0  0  0
   -4.2620    4.9510  -22.5950 C   0  0  0  0  0  0  0  0  0  0  0  0
   -4.9240    5.9040  -23.3380 C   0  0  0  0  0  0  0  0  0  0  0  0
   -3.0060    6.0730  -24.7850 C   0  0  0  0  0  0  0  0  0  0  0  0
   -4.3040    6.4510  -24.4530 C   0  0  0  0  0  0  0  0  0  0  0  0
   -4.9380    7.3460  -25.3370 N   0  0  0  0  0  0  0  0  0  0  0  0
   -5.9360    8.2140  -25.0670 C   0  0  0  0  0  0  0  0  0  0  0  0
   -6.4130    8.3800  -23.9550 O   0  0  0  0  0  0  0  0  0  0  0  0
   -6.4610    8.9900  -26.2570 C   0  0  0  0  0  0  0  0  0  0  0  0
   -7.4800    9.8560  -25.7970 O   0  0  0  0  0  0  0  0  0  0  0  0
   -7.8830   10.7840  -26.7640 C   0  0  0  0  0  0  0  0  0  0  0  0
 16 15  1  0
 15 14  1  0
 14 12  1  0
 13 12  2  0
 12 11  1  0
 11 10  1  0
 10  8  1  0
  8  7  2  0
  7  6  1  0
  6  5  2  0
  5  4  1  0
  4  2  1  0
  2  1  2  0
  3  2  1  0
  9  5  1  0
 10  9  2  0
M  END
$$$$
