XX01ZVNS2B-x4951_B_203_6_XX01ZVNS2B-x4590+B+203+1__LIG
     RDKit          3D

 26 30  0  0  0  0  0  0  0  0999 V2000
   -6.6050    5.5560  -12.8120 O   0  0  0  0  0  0  0  0  0  0  0  0
   -7.4380    4.8650  -13.3890 C   0  0  0  0  0  0  0  0  0  0  0  0
   -7.3950    4.7160  -14.8770 C   0  0  0  0  0  0  0  0  0  0  0  0
   -6.1910    5.1190  -15.4510 C   0  0  0  0  0  0  0  0  0  0  0  0
   -6.0850    5.1650  -16.8400 C   0  0  0  0  0  0  0  0  0  0  0  0
   -5.0480    5.6150  -17.6460 N   0  0  0  0  0  0  0  0  0  0  0  0
   -5.5180    5.5290  -18.8760 C   0  0  0  0  0  0  0  0  0  0  0  0
   -4.8260    5.9050  -19.9650 N   0  0  0  0  0  0  0  0  0  0  0  0
   -3.3940    6.2160  -19.9600 C   0  0  0  0  0  0  0  0  0  0  0  0
   -2.9630    7.5530  -19.3250 C   0  0  0  0  0  0  0  0  0  0  0  0
   -2.8480    8.1380  -20.7530 C   0  0  0  0  0  0  0  0  0  0  0  0
   -2.7580    6.6870  -21.2820 C   0  0  0  0  0  0  0  0  0  0  0  0
   -6.7820    5.0420  -18.9410 N   0  0  0  0  0  0  0  0  0  0  0  0
   -7.1710    4.7950  -17.6290 C   0  0  0  0  0  0  0  0  0  0  0  0
   -8.3640    4.3550  -17.0720 C   0  0  0  0  0  0  0  0  0  0  0  0
   -8.4620    4.3200  -15.6880 C   0  0  0  0  0  0  0  0  0  0  0  0
   -8.3890    4.1630  -12.7260 N   0  0  0  0  0  0  0  0  0  0  0  0
   -8.5220    4.1100  -11.3090 C   0  0  0  0  0  0  0  0  0  0  0  0
   -8.8140    2.9160  -10.6520 C   0  0  0  0  0  0  0  0  0  0  0  0
   -8.8590    2.8690   -9.2590 C   0  0  0  0  0  0  0  0  0  0  0  0
   -9.1420    1.7140   -8.3430 C   0  0  0  0  0  0  0  0  0  0  0  0
   -8.8410    2.2690   -7.0210 N   0  0  0  0  0  0  0  0  0  0  0  0
   -8.7150    3.7250   -7.0500 C   0  0  0  0  0  0  0  0  0  0  0  0
   -8.6160    4.0180   -8.5190 C   0  0  0  0  0  0  0  0  0  0  0  0
   -8.3310    5.2110   -9.1720 C   0  0  0  0  0  0  0  0  0  0  0  0
   -8.2850    5.2590  -10.5580 C   0  0  0  0  0  0  0  0  0  0  0  0
  2  1  2  0
 17  2  1  0
 18 17  1  0
 18 26  2  0
 26 25  1  0
 25 24  2  0
 24 20  1  0
 20 19  2  0
 19 18  1  0
 21 20  1  0
 22 21  1  0
 23 22  1  0
 24 23  1  0
  3  2  1  0
  3 16  2  0
 16 15  1  0
 15 14  2  0
 14 13  1  0
 13  7  1  0
  8  7  1  0
  9  8  1  0
  9 12  1  0
 12 11  1  0
 11 10  1  0
 10  9  1  0
  7  6  2  0
  6  5  1  0
 14  5  1  0
  5  4  2  0
  4  3  1  0
M  END
$$$$
