XX01ZVNS2B-x4966_B_203_5_XX01ZVNS2B-x4590+B+203+1__LIG
     RDKit          3D

 33 37  0  0  0  0  0  0  0  0999 V2000
  -10.2020    3.8740  -17.6880 F   0  0  0  0  0  0  0  0  0  0  0  0
   -8.9960    4.1900  -17.1440 C   0  0  0  0  0  0  0  0  0  0  0  0
   -7.9610    4.4820  -18.0000 C   0  0  0  0  0  0  0  0  0  0  0  0
   -6.7450    4.8360  -17.4300 C   0  0  0  0  0  0  0  0  0  0  0  0
   -6.5890    4.8840  -16.0420 C   0  0  0  0  0  0  0  0  0  0  0  0
   -5.2640    5.1480  -15.7200 N   0  0  0  0  0  0  0  0  0  0  0  0
   -5.4820    5.0710  -17.9460 N   0  0  0  0  0  0  0  0  0  0  0  0
   -4.6400    5.2450  -16.8870 C   0  0  0  0  0  0  0  0  0  0  0  0
   -3.1940    5.4800  -17.0310 C   0  0  0  0  0  0  0  0  0  0  0  0
   -2.4220    5.8280  -15.9270 C   0  0  0  0  0  0  0  0  0  0  0  0
   -1.0520    5.9870  -16.0470 C   0  0  0  0  0  0  0  0  0  0  0  0
   -2.5620    5.3170  -18.2600 C   0  0  0  0  0  0  0  0  0  0  0  0
   -1.1910    5.4750  -18.3730 C   0  0  0  0  0  0  0  0  0  0  0  0
   -0.4140    5.8010  -17.2670 C   0  0  0  0  0  0  0  0  0  0  0  0
    1.0890    5.9010  -17.3760 C   0  0  0  0  0  0  0  0  0  0  0  0
    1.6680    7.1060  -16.6240 C   0  0  0  0  0  0  0  0  0  0  0  0
    1.8120    8.3210  -17.5090 C   0  0  0  0  0  0  0  0  0  0  0  0
    2.8880    8.9240  -17.5910 O   0  0  0  0  0  0  0  0  0  0  0  0
    0.7290    8.6840  -18.1820 N   0  0  0  0  0  0  0  0  0  0  0  0
   -8.8930    4.2300  -15.7660 C   0  0  0  0  0  0  0  0  0  0  0  0
   -7.6730    4.6000  -15.1970 C   0  0  0  0  0  0  0  0  0  0  0  0
   -7.5560    4.7720  -13.7080 C   0  0  0  0  0  0  0  0  0  0  0  0
   -6.7280    5.5470  -13.2320 O   0  0  0  0  0  0  0  0  0  0  0  0
   -8.4000    4.0320  -12.9440 N   0  0  0  0  0  0  0  0  0  0  0  0
   -8.4880    4.0390  -11.5230 C   0  0  0  0  0  0  0  0  0  0  0  0
   -8.7420    2.8580  -10.8270 C   0  0  0  0  0  0  0  0  0  0  0  0
   -8.8450    2.8670   -9.4360 C   0  0  0  0  0  0  0  0  0  0  0  0
   -9.1550    1.7490   -8.4840 C   0  0  0  0  0  0  0  0  0  0  0  0
   -8.9430    2.3670   -7.1860 N   0  0  0  0  0  0  0  0  0  0  0  0
   -8.8260    3.8210   -7.2640 C   0  0  0  0  0  0  0  0  0  0  0  0
   -8.6770    4.0560   -8.7390 C   0  0  0  0  0  0  0  0  0  0  0  0
   -8.4170    5.2340   -9.4310 C   0  0  0  0  0  0  0  0  0  0  0  0
   -8.3270    5.2290  -10.8140 C   0  0  0  0  0  0  0  0  0  0  0  0
 19 17  1  0
 18 17  2  0
 17 16  1  0
 16 15  1  0
 15 14  1  0
 14 11  1  0
 11 10  2  0
 10  9  1  0
  9  8  1  0
  8  6  2  0
  6  5  1  0
  5 21  2  0
 22 21  1  0
 23 22  2  0
 24 22  1  0
 25 24  1  0
 25 33  2  0
 33 32  1  0
 32 31  2  0
 31 27  1  0
 27 26  2  0
 26 25  1  0
 28 27  1  0
 29 28  1  0
 30 29  1  0
 31 30  1  0
 21 20  1  0
 20  2  2  0
  2  1  1  0
  3  2  1  0
  4  3  2  0
  5  4  1  0
  7  4  1  0
  8  7  1  0
 12  9  2  0
 13 12  1  0
 14 13  2  0
M  END
$$$$
