A71EV2A-x3884_A_201_1_A71EV2A-x0911+A+147+1__LIG
     RDKit          3D

 28 29  0  0  0  0  0  0  0  0999 V2000
   10.3300   16.6830   19.2400 O   0  0  0  0  0  0  0  0  0  0  0  0
   10.7260   15.5320   19.4500 C   0  0  0  0  0  0  0  0  0  0  0  0
   11.0260   14.6920   18.4740 N   0  0  0  0  0  0  0  0  0  0  0  0
   10.8150   14.9730   20.8590 C   0  0  1  0  0  0  0  0  0  0  0  0
   11.9370   15.6460   21.6750 C   0  0  0  0  0  0  0  0  0  0  0  0
   12.0120   15.0330   23.0750 C   0  0  0  0  0  0  0  0  0  0  0  0
   10.6650   15.1240   23.7630 C   0  0  0  0  0  0  0  0  0  0  0  0
    9.4740   15.0920   21.5830 C   0  0  0  0  0  0  0  0  0  0  0  0
    9.5770   14.5590   22.9450 N   0  0  0  0  0  0  0  0  0  0  0  0
    8.6450   13.6960   23.3990 C   0  0  0  0  0  0  0  0  0  0  0  0
    7.7150   13.3450   22.6950 O   0  0  0  0  0  0  0  0  0  0  0  0
    8.7200   13.2430   24.9060 C   0  0  1  0  0  0  0  0  0  0  0  0
    8.5290   14.3500   25.8380 N   0  0  0  0  0  0  0  0  0  0  0  0
    9.4600   14.6390   26.7670 C   0  0  0  0  0  0  0  0  0  0  0  0
    9.0660   15.7000   27.4690 O   0  0  0  0  0  0  0  0  0  0  0  0
    9.9490   16.3080   28.4970 C   0  0  0  0  0  0  0  0  0  0  0  0
   10.2660   15.3700   29.6500 C   0  0  0  0  0  0  0  0  0  0  0  0
   11.2060   16.7670   27.7850 C   0  0  0  0  0  0  0  0  0  0  0  0
    9.1350   17.4970   28.9540 C   0  0  0  0  0  0  0  0  0  0  0  0
   10.4750   14.0030   26.9650 O   0  0  0  0  0  0  0  0  0  0  0  0
    7.7560   12.1010   25.1740 C   0  0  0  0  0  0  0  0  0  0  0  0
    8.0050   10.8340   24.6470 C   0  0  0  0  0  0  0  0  0  0  0  0
    9.1260   10.7330   23.8610 O   0  0  0  0  0  0  0  0  0  0  0  0
    9.5760    9.4220   23.4940 C   0  0  0  0  0  0  0  0  0  0  0  0
    6.6520   12.2740   26.0030 C   0  0  0  0  0  0  0  0  0  0  0  0
    5.8140   11.2130   26.2840 C   0  0  0  0  0  0  0  0  0  0  0  0
    6.0640    9.9810   25.7550 C   0  0  0  0  0  0  0  0  0  0  0  0
    7.1640    9.7750   24.9290 C   0  0  0  0  0  0  0  0  0  0  0  0
 24 23  1  0
 23 22  1  0
 22 28  2  0
 28 27  1  0
 27 26  2  0
 26 25  1  0
 25 21  2  0
 22 21  1  0
 21 12  1  0
 12 13  1  1
 14 13  1  0
 20 14  2  0
 15 14  1  0
 16 15  1  0
 19 16  1  0
 18 16  1  0
 17 16  1  0
 12 10  1  0
 11 10  2  0
 10  9  1  0
  9  7  1  0
  7  6  1  0
  6  5  1  0
  5  4  1  0
  4  2  1  6
  3  2  1  0
  2  1  2  0
  8  4  1  0
  9  8  1  0
M  END
$$$$
