XX01ZVNS2B-x2094_B_301_1_XX01ZVNS2B-x4590+B+203+1__LIG
     RDKit          3D

 24 27  0  0  0  0  0  0  0  0999 V2000
   -7.6160    2.0880  -13.9940 O   0  0  0  0  0  0  0  0  0  0  0  0
   -7.5410    3.3030  -13.8360 C   0  0  0  0  0  0  0  0  0  0  0  0
   -7.7490    4.1880  -15.0130 C   0  0  0  0  0  0  0  0  0  0  0  0
   -8.7410    3.9930  -15.9280 C   0  0  0  0  0  0  0  0  0  0  0  0
   -8.4630    4.9260  -17.3390 S   0  0  0  0  0  0  0  0  0  0  0  0
   -7.0350    5.5710  -16.5800 C   0  0  0  0  0  0  0  0  0  0  0  0
   -6.0410    6.4570  -17.3090 C   0  0  1  0  0  0  0  0  0  0  0  0
   -4.5960    6.0800  -16.9310 C   0  0  0  0  0  0  0  0  0  0  0  0
   -3.5660    6.6090  -17.9480 C   0  0  0  0  0  0  0  0  0  0  0  0
   -3.8890    6.1390  -19.3570 C   0  0  0  0  0  0  0  0  0  0  0  0
   -5.2610    5.6310  -19.5170 N   0  0  0  0  0  0  0  0  0  0  0  0
   -6.2380    6.4890  -18.8260 C   0  0  0  0  0  0  0  0  0  0  0  0
   -6.8970    5.2350  -15.3310 N   0  0  0  0  0  0  0  0  0  0  0  0
   -7.2200    3.7910  -12.6320 N   0  0  0  0  0  0  0  0  0  0  0  0
   -5.9590    3.4510  -11.9550 C   0  0  0  0  0  0  0  0  0  0  0  0
   -5.8460    4.5190  -10.8960 C   0  0  0  0  0  0  0  0  0  0  0  0
   -7.2890    4.7160  -10.4550 C   0  0  2  0  0  0  0  0  0  0  0  0
   -7.7490    3.8950   -9.2660 C   0  0  0  0  0  0  0  0  0  0  0  0
   -7.4450    4.3020   -7.9750 C   0  0  0  0  0  0  0  0  0  0  0  0
   -7.8830    3.5660   -6.9020 C   0  0  0  0  0  0  0  0  0  0  0  0
   -8.6200    2.4440   -7.1450 C   0  0  0  0  0  0  0  0  0  0  0  0
   -8.9480    2.0290   -8.3740 N   0  0  0  0  0  0  0  0  0  0  0  0
   -8.5130    2.7550   -9.4200 C   0  0  0  0  0  0  0  0  0  0  0  0
   -8.1070    4.5760  -11.7530 C   0  0  0  0  0  0  0  0  0  0  0  0
  1  2  2  0
  2  3  1  0
  3  4  2  0
  4  5  1  0
  5  6  1  0
  7  6  1  1
  7  8  1  0
  8  9  1  0
  9 10  1  0
 10 11  1  0
 11 12  1  0
  6 13  2  0
  2 14  1  0
 14 15  1  0
 15 16  1  0
 16 17  1  0
 17 18  1  1
 18 19  2  0
 19 20  1  0
 20 21  2  0
 21 22  1  0
 22 23  2  0
 17 24  1  0
  3 13  1  0
 14 24  1  0
  7 12  1  0
 18 23  1  0
M  END
$$$$
