XX01ZVNS2B-x3970_B_203_1_XX01ZVNS2B-x4590+B+203+1__LIG
     RDKit          3D

 22 25  0  0  0  0  0  0  0  0999 V2000
   -6.8410    5.5900  -13.3130 O   0  0  0  0  0  0  0  0  0  0  0  0
   -7.6790    4.8080  -13.7590 C   0  0  0  0  0  0  0  0  0  0  0  0
   -7.7960    4.5740  -15.2290 C   0  0  0  0  0  0  0  0  0  0  0  0
   -6.6940    4.8450  -16.0360 C   0  0  0  0  0  0  0  0  0  0  0  0
   -8.9770    4.1100  -15.8160 C   0  0  0  0  0  0  0  0  0  0  0  0
   -9.0730    3.9290  -17.1880 C   0  0  0  0  0  0  0  0  0  0  0  0
   -7.9590    4.2090  -17.9720 C   0  0  0  0  0  0  0  0  0  0  0  0
   -6.7720    4.6620  -17.4070 C   0  0  0  0  0  0  0  0  0  0  0  0
   -5.7780    4.8660  -18.5100 C   0  0  0  0  0  0  0  0  0  0  0  0
   -7.8040    4.1140  -19.3570 N   0  0  0  0  0  0  0  0  0  0  0  0
   -6.5490    4.4580  -19.7470 C   0  0  0  0  0  0  0  0  0  0  0  0
   -6.1260    4.4170  -20.8980 O   0  0  0  0  0  0  0  0  0  0  0  0
   -8.5030    4.0650  -12.9800 N   0  0  0  0  0  0  0  0  0  0  0  0
   -8.5280    4.0270  -11.5630 C   0  0  0  0  0  0  0  0  0  0  0  0
   -8.7320    2.8420  -10.8720 C   0  0  0  0  0  0  0  0  0  0  0  0
   -8.8140    2.8610   -9.4840 C   0  0  0  0  0  0  0  0  0  0  0  0
   -9.0880    1.7510   -8.5130 C   0  0  0  0  0  0  0  0  0  0  0  0
   -8.8320    2.3710   -7.2250 N   0  0  0  0  0  0  0  0  0  0  0  0
   -8.8000    3.8150   -7.3560 C   0  0  0  0  0  0  0  0  0  0  0  0
   -8.6600    4.0860   -8.8180 C   0  0  0  0  0  0  0  0  0  0  0  0
   -8.4450    5.2330   -9.4790 N   0  0  0  0  0  0  0  0  0  0  0  0
   -8.3840    5.1910  -10.8160 C   0  0  0  0  0  0  0  0  0  0  0  0
 12 11  2  0
 11  9  1  0
  9  8  1  0
  8  4  2  0
  4  3  1  0
  3  2  1  0
  2  1  2  0
 13  2  1  0
 14 13  1  0
 14 22  2  0
 22 21  1  0
 21 20  2  0
 20 16  1  0
 16 15  2  0
 15 14  1  0
 17 16  1  0
 18 17  1  0
 19 18  1  0
 20 19  1  0
  5  3  2  0
  6  5  1  0
  7  6  2  0
  8  7  1  0
 10  7  1  0
 11 10  1  0
M  END
$$$$
