A71EV2A-x4295_A_201_1_A71EV2A-x0911+A+147+1__LIG
     RDKit          3D

 20 21  0  0  0  0  0  0  0  0999 V2000
   11.8090   15.3770   24.2670 O   0  0  0  0  0  0  0  0  0  0  0  0
   11.4190   15.0130   23.1700 C   0  0  0  0  0  0  0  0  0  0  0  0
   11.8260   15.5720   21.8310 C   0  0  0  0  0  0  0  0  0  0  0  0
   11.3250   14.5240   20.8390 C   0  0  2  0  0  0  0  0  0  0  0  0
   10.9210   15.0900   19.4890 C   0  0  0  0  0  0  0  0  0  0  0  0
   10.1510   16.0540   19.4040 O   0  0  0  0  0  0  0  0  0  0  0  0
   11.4060   14.4600   18.4320 N   0  0  0  0  0  0  0  0  0  0  0  0
   10.1310   13.8980   21.5560 C   0  0  0  0  0  0  0  0  0  0  0  0
   10.4900   14.0610   22.9650 N   0  0  0  0  0  0  0  0  0  0  0  0
    9.8580   13.2960   24.0400 C   0  0  0  0  0  0  0  0  0  0  0  0
    8.3390   13.3470   23.9280 C   0  0  2  0  0  0  0  0  0  0  0  0
    7.9150   14.6690   24.2690 O   0  0  0  0  0  0  0  0  0  0  0  0
    7.7050   12.3130   24.8380 C   0  0  0  0  0  0  0  0  0  0  0  0
    7.9370   10.9520   24.6500 C   0  0  0  0  0  0  0  0  0  0  0  0
    8.7360   10.6350   23.5800 O   0  0  0  0  0  0  0  0  0  0  0  0
    9.4950    9.4230   23.6350 C   0  0  0  0  0  0  0  0  0  0  0  0
    6.7970   12.6960   25.8210 C   0  0  0  0  0  0  0  0  0  0  0  0
    6.1250   11.7540   26.5770 C   0  0  0  0  0  0  0  0  0  0  0  0
    6.3600   10.4250   26.3780 C   0  0  0  0  0  0  0  0  0  0  0  0
    7.2710   10.0130   25.4200 C   0  0  0  0  0  0  0  0  0  0  0  0
 16 15  1  0
 15 14  1  0
 14 20  2  0
 20 19  1  0
 19 18  2  0
 18 17  1  0
 17 13  2  0
 14 13  1  0
 13 11  1  0
 11 12  1  1
 11 10  1  0
 10  9  1  0
  9  8  1  0
  8  4  1  0
  4  5  1  6
  7  5  1  0
  6  5  2  0
  4  3  1  0
  3  2  1  0
  9  2  1  0
  2  1  2  0
M  END
$$$$
