A71EV2A-x3189_A_201_1_A71EV2A-x0911+A+147+1__LIG
     RDKit          3D

 22 24  0  0  0  0  0  0  0  0999 V2000
   10.5290   16.6330   19.1640 O   0  0  0  0  0  0  0  0  0  0  0  0
   10.9410   15.4970   19.3970 C   0  0  0  0  0  0  0  0  0  0  0  0
   11.3960   14.6930   18.4510 N   0  0  0  0  0  0  0  0  0  0  0  0
   10.9770   14.9520   20.8140 C   0  0  1  0  0  0  0  0  0  0  0  0
   12.1160   15.6030   21.6150 C   0  0  0  0  0  0  0  0  0  0  0  0
   12.1300   15.1350   23.0690 C   0  0  0  0  0  0  0  0  0  0  0  0
   10.7840   15.3830   23.7180 C   0  0  0  0  0  0  0  0  0  0  0  0
    9.6470   15.2170   21.5290 C   0  0  0  0  0  0  0  0  0  0  0  0
    9.7040   14.7730   22.9270 N   0  0  0  0  0  0  0  0  0  0  0  0
    8.7890   13.9150   23.4320 C   0  0  0  0  0  0  0  0  0  0  0  0
    7.9920   13.3200   22.7150 O   0  0  0  0  0  0  0  0  0  0  0  0
    8.7640   13.7410   24.9390 C   0  0  0  0  0  0  0  0  0  0  0  0
    8.0210   12.4910   25.3480 C   0  0  0  0  0  0  0  0  0  0  0  0
    6.9810   12.5640   26.2740 C   0  0  0  0  0  0  0  0  0  0  0  0
    6.2900   11.4320   26.6750 C   0  0  0  0  0  0  0  0  0  0  0  0
    6.6140   10.1920   26.1530 C   0  0  0  0  0  0  0  0  0  0  0  0
    7.6520   10.0790   25.2140 C   0  0  0  0  0  0  0  0  0  0  0  0
    8.3570   11.2270   24.8150 C   0  0  0  0  0  0  0  0  0  0  0  0
    9.3450   10.7410   23.8870 C   0  0  0  0  0  0  0  0  0  0  0  0
    8.1360    8.9600   24.5950 N   0  0  0  0  0  0  0  0  0  0  0  0
    9.1550    9.4210   23.8150 N   0  0  0  0  0  0  0  0  0  0  0  0
    9.9140    8.4780   22.9950 C   0  0  0  0  0  0  0  0  0  0  0  0
 22 21  1  0
 21 19  1  0
 19 18  2  0
 18 13  1  0
 13 12  1  0
 12 10  1  0
 11 10  2  0
 10  9  1  0
  9  7  1  0
  7  6  1  0
  6  5  1  0
  5  4  1  0
  4  2  1  6
  3  2  1  0
  2  1  2  0
  8  4  1  0
  9  8  1  0
 14 13  2  0
 15 14  1  0
 16 15  2  0
 17 16  1  0
 18 17  1  0
 20 17  2  0
 21 20  1  0
M  END
$$$$
