XX01ZVNS2B-x0969_B_203_1_XX01ZVNS2B-x4590+B+203+1__LIG
     RDKit          3D

 10 11  0  0  0  0  0  0  0  0999 V2000
   -8.2240    5.0050  -11.5600 C   0  0  0  0  0  0  0  0  0  0  0  0
   -8.4170    4.9010  -10.0660 C   0  0  0  0  0  0  0  0  0  0  0  0
   -8.5660    3.7580   -9.3330 C   0  0  0  0  0  0  0  0  0  0  0  0
   -8.7320    4.1270   -8.0450 N   0  0  0  0  0  0  0  0  0  0  0  0
   -8.6940    5.4820   -7.8960 N   0  0  0  0  0  0  0  0  0  0  0  0
   -8.5010    5.9430   -9.1230 C   0  0  0  0  0  0  0  0  0  0  0  0
   -8.5730    2.3030   -9.6940 C   0  0  0  0  0  0  0  0  0  0  0  0
   -8.4650    1.4180   -8.5280 N   0  0  0  0  0  0  0  0  0  0  0  0
   -9.3520    1.8510   -7.4290 C   0  0  0  0  0  0  0  0  0  0  0  0
   -8.9470    3.2210   -6.9110 C   0  0  0  0  0  0  0  0  0  0  0  0
  2  1  1  0
  2  6  1  0
  6  5  2  0
  5  4  1  0
  4 10  1  0
 10  9  1  0
  9  8  1  0
  8  7  1  0
  7  3  1  0
  3  2  2  0
  4  3  1  0
M  END
$$$$
