A71EV2A-x5427_A_201_5_A71EV2A-x0911+A+147+1__LIG
     RDKit          3D

 19 20  0  0  0  0  0  0  0  0999 V2000
    9.3930   10.8910   23.2830 Cl  0  0  0  0  0  0  0  0  0  0  0  0
    8.0900   11.1710   24.3950 C   0  0  0  0  0  0  0  0  0  0  0  0
    7.5820   10.0990   25.1060 C   0  0  0  0  0  0  0  0  0  0  0  0
    6.5780   10.3140   26.0350 C   0  0  0  0  0  0  0  0  0  0  0  0
    6.0980   11.5920   26.2550 C   0  0  0  0  0  0  0  0  0  0  0  0
    6.6210   12.6430   25.5240 C   0  0  0  0  0  0  0  0  0  0  0  0
    6.0170   14.2370   25.8390 Cl  0  0  0  0  0  0  0  0  0  0  0  0
    7.6120   12.4710   24.5520 C   0  0  0  0  0  0  0  0  0  0  0  0
    8.0660   13.6010   23.6540 C   0  0  0  0  0  0  0  0  0  0  0  0
    9.4510   14.1100   24.0120 C   0  0  0  0  0  0  0  0  0  0  0  0
    9.8760   14.0340   25.1590 O   0  0  0  0  0  0  0  0  0  0  0  0
   10.1840   14.6400   23.0070 N   0  0  0  0  0  0  0  0  0  0  0  0
   11.5670   15.1160   23.1620 C   0  0  0  0  0  0  0  0  0  0  0  0
   11.9150   15.6370   21.7690 C   0  0  0  0  0  0  0  0  0  0  0  0
    9.6960   14.8060   21.6340 C   0  0  0  0  0  0  0  0  0  0  0  0
   11.0000   14.8300   20.8370 C   0  0  1  0  0  0  0  0  0  0  0  0
   10.8180   15.4240   19.4500 C   0  0  0  0  0  0  0  0  0  0  0  0
   10.2750   16.5200   19.2910 O   0  0  0  0  0  0  0  0  0  0  0  0
   11.2350   14.6710   18.4430 N   0  0  0  0  0  0  0  0  0  0  0  0
 19 17  1  0
 18 17  2  0
 16 17  1  6
 16 14  1  0
 14 13  1  0
 13 12  1  0
 12 10  1  0
 11 10  2  0
 10  9  1  0
  9  8  1  0
  8  6  2  0
  7  6  1  0
  6  5  1  0
  5  4  2  0
  4  3  1  0
  3  2  2  0
  8  2  1  0
  2  1  1  0
 15 12  1  0
 16 15  1  0
M  END
$$$$
