A71EV2A-x4306_A_201_1_A71EV2A-x0911+A+147+1__LIG
     RDKit          3D

 24 25  0  0  0  0  0  0  0  0999 V2000
   10.7870   10.1020   24.3290 F   0  0  0  0  0  0  0  0  0  0  0  0
    9.9400    9.4670   23.5460 C   0  0  0  0  0  0  0  0  0  0  0  0
   10.0390   10.0460   22.3550 F   0  0  0  0  0  0  0  0  0  0  0  0
   10.3930    8.2270   23.4020 F   0  0  0  0  0  0  0  0  0  0  0  0
    8.5730    9.5120   24.0980 C   0  0  0  0  0  0  0  0  0  0  0  0
    8.2230   10.9010   24.2310 O   0  0  0  0  0  0  0  0  0  0  0  0
    7.1080   11.2470   24.9520 C   0  0  0  0  0  0  0  0  0  0  0  0
    6.1910   10.3510   25.4850 C   0  0  0  0  0  0  0  0  0  0  0  0
    5.0980   10.8350   26.1840 C   0  0  0  0  0  0  0  0  0  0  0  0
    4.9270   12.1950   26.3620 C   0  0  0  0  0  0  0  0  0  0  0  0
    5.8410   13.0950   25.8330 C   0  0  0  0  0  0  0  0  0  0  0  0
    6.9410   12.6230   25.1160 C   0  0  0  0  0  0  0  0  0  0  0  0
    7.9540   13.4480   24.5670 N   0  0  0  0  0  0  0  0  0  0  0  0
    8.1680   13.6520   23.2270 C   0  0  0  0  0  0  0  0  0  0  0  0
    7.4040   13.2390   22.3710 O   0  0  0  0  0  0  0  0  0  0  0  0
    9.2520   14.4100   22.8970 N   0  0  0  0  0  0  0  0  0  0  0  0
   10.2870   14.8490   23.8490 C   0  0  0  0  0  0  0  0  0  0  0  0
   11.6870   14.7200   23.2540 C   0  0  0  0  0  0  0  0  0  0  0  0
   11.7500   15.3660   21.8710 C   0  0  0  0  0  0  0  0  0  0  0  0
    9.3200   15.0500   21.5780 C   0  0  0  0  0  0  0  0  0  0  0  0
   10.6820   14.7710   20.9310 C   0  0  1  0  0  0  0  0  0  0  0  0
   10.7850   15.3590   19.5330 C   0  0  0  0  0  0  0  0  0  0  0  0
   10.3560   16.4910   19.2850 O   0  0  0  0  0  0  0  0  0  0  0  0
   11.3460   14.5850   18.6140 N   0  0  0  0  0  0  0  0  0  0  0  0
 24 22  1  0
 23 22  2  0
 21 22  1  6
 21 19  1  0
 19 18  1  0
 18 17  1  0
 17 16  1  0
 16 14  1  0
 15 14  2  0
 14 13  1  0
 13 12  1  0
 12 11  2  0
 11 10  1  0
 10  9  2  0
  9  8  1  0
  8  7  2  0
 12  7  1  0
  7  6  1  0
  6  5  1  0
  5  2  1  0
  3  2  1  0
  4  2  1  0
  2  1  1  0
 20 16  1  0
 21 20  1  0
M  END
$$$$
