A71EV2A-x5584_A_201_5_A71EV2A-x0911+A+147+1__LIG
     RDKit          3D

 24 26  0  0  0  0  0  0  0  0999 V2000
   10.4070   16.5850   19.2400 O   0  0  0  0  0  0  0  0  0  0  0  0
   10.7890   15.4280   19.4420 C   0  0  0  0  0  0  0  0  0  0  0  0
   11.0940   14.5910   18.4590 N   0  0  0  0  0  0  0  0  0  0  0  0
   10.8330   14.8490   20.8440 C   0  0  1  0  0  0  0  0  0  0  0  0
   11.8880   15.5280   21.7250 C   0  0  0  0  0  0  0  0  0  0  0  0
   11.8840   14.8980   23.1240 C   0  0  0  0  0  0  0  0  0  0  0  0
   10.4960   14.9590   23.7490 C   0  0  0  0  0  0  0  0  0  0  0  0
    9.4470   14.9970   21.4910 C   0  0  0  0  0  0  0  0  0  0  0  0
    9.4790   14.4150   22.8360 N   0  0  0  0  0  0  0  0  0  0  0  0
    8.4820   13.6070   23.2430 C   0  0  0  0  0  0  0  0  0  0  0  0
    7.5680   13.2520   22.5530 O   0  0  0  0  0  0  0  0  0  0  0  0
    8.6180   13.2920   24.5570 O   0  0  0  0  0  0  0  0  0  0  0  0
    7.6210   12.4830   25.1080 C   0  0  0  0  0  0  0  0  0  0  0  0
    7.6750   11.1140   24.9700 C   0  0  0  0  0  0  0  0  0  0  0  0
    8.5970   10.5830   24.1250 F   0  0  0  0  0  0  0  0  0  0  0  0
    6.7780   10.2810   25.5810 C   0  0  0  0  0  0  0  0  0  0  0  0
    6.6150   13.0360   25.8670 C   0  0  0  0  0  0  0  0  0  0  0  0
    5.6740   12.2210   26.4990 C   0  0  0  0  0  0  0  0  0  0  0  0
    5.7680   10.8270   26.3620 C   0  0  0  0  0  0  0  0  0  0  0  0
    4.7980    9.9130   27.0620 C   0  0  0  0  0  0  0  0  0  0  0  0
    3.5280   10.6570   27.4370 C   0  0  0  0  0  0  0  0  0  0  0  0
    4.5290   12.8550   27.2410 C   0  0  0  0  0  0  0  0  0  0  0  0
    3.8460   11.9140   28.1420 N   0  0  0  0  0  0  0  0  0  0  0  0
    4.6370   11.6830   29.3490 C   0  0  0  0  0  0  0  0  0  0  0  0
 24 23  1  0
 23 21  1  0
 21 20  1  0
 20 19  1  0
 19 16  1  0
 16 14  2  0
 15 14  1  0
 14 13  1  0
 13 12  1  0
 12 10  1  0
 11 10  2  0
 10  9  1  0
  9  7  1  0
  7  6  1  0
  6  5  1  0
  5  4  1  0
  4  2  1  6
  3  2  1  0
  2  1  2  0
  8  4  1  0
  9  8  1  0
 17 13  2  0
 18 17  1  0
 19 18  2  0
 22 18  1  0
 23 22  1  0
M  END
$$$$
