A71EV2A-x3188_A_201_1_A71EV2A-x0911+A+147+1__LIG
     RDKit          3D

 22 24  0  0  0  0  0  0  0  0999 V2000
   10.3860   16.7120   19.0700 O   0  0  0  0  0  0  0  0  0  0  0  0
   10.8220   15.5840   19.3160 C   0  0  0  0  0  0  0  0  0  0  0  0
   11.2310   14.7450   18.3760 N   0  0  0  0  0  0  0  0  0  0  0  0
   10.8990   15.0680   20.7430 C   0  0  1  0  0  0  0  0  0  0  0  0
   11.9300   15.8560   21.5620 C   0  0  0  0  0  0  0  0  0  0  0  0
   12.0100   15.3240   22.9890 C   0  0  0  0  0  0  0  0  0  0  0  0
   10.6450   15.4010   23.6520 C   0  0  0  0  0  0  0  0  0  0  0  0
    9.5320   15.1530   21.4320 C   0  0  0  0  0  0  0  0  0  0  0  0
    9.6060   14.7400   22.8380 N   0  0  0  0  0  0  0  0  0  0  0  0
    8.6810   13.8980   23.3540 C   0  0  0  0  0  0  0  0  0  0  0  0
    7.8150   13.3800   22.6590 O   0  0  0  0  0  0  0  0  0  0  0  0
    8.7120   13.6780   24.8570 C   0  0  0  0  0  0  0  0  0  0  0  0
    7.9630   12.4310   25.2660 C   0  0  0  0  0  0  0  0  0  0  0  0
    6.9360   12.5030   26.2090 C   0  0  0  0  0  0  0  0  0  0  0  0
    6.2510   11.3710   26.6170 C   0  0  0  0  0  0  0  0  0  0  0  0
    6.5610   10.1320   26.0840 C   0  0  0  0  0  0  0  0  0  0  0  0
    7.5870   10.0150   25.1310 C   0  0  0  0  0  0  0  0  0  0  0  0
    8.2940   11.1680   24.7300 C   0  0  0  0  0  0  0  0  0  0  0  0
    9.2740   10.6880   23.8090 C   0  0  0  0  0  0  0  0  0  0  0  0
    8.0610    8.8800   24.5060 N   0  0  0  0  0  0  0  0  0  0  0  0
    9.0850    9.3660   23.7400 N   0  0  0  0  0  0  0  0  0  0  0  0
    9.9320    8.4480   22.9810 C   0  0  0  0  0  0  0  0  0  0  0  0
 22 21  1  0
 21 19  1  0
 19 18  2  0
 18 13  1  0
 13 12  1  0
 12 10  1  0
 11 10  2  0
 10  9  1  0
  9  7  1  0
  7  6  1  0
  6  5  1  0
  5  4  1  0
  4  2  1  6
  3  2  1  0
  2  1  2  0
  8  4  1  0
  9  8  1  0
 14 13  2  0
 15 14  1  0
 16 15  2  0
 17 16  1  0
 18 17  1  0
 20 17  2  0
 21 20  1  0
M  END
$$$$
