XX01ZVNS2B-x3487_B_203_1_XX01ZVNS2B-x4590+B+203+1__LIG
     RDKit          3D

 22 25  0  0  0  0  0  0  0  0999 V2000
   -4.4220    5.2850  -14.9250 N   0  0  0  0  0  0  0  0  0  0  0  0
   -5.1820    5.0670  -16.0270 C   0  0  0  0  0  0  0  0  0  0  0  0
   -4.6580    5.1140  -17.2230 N   0  0  0  0  0  0  0  0  0  0  0  0
   -5.6980    4.8570  -18.1740 O   0  0  0  0  0  0  0  0  0  0  0  0
   -6.8380    4.6390  -17.4740 C   0  0  0  0  0  0  0  0  0  0  0  0
   -8.0820    4.3130  -17.9930 C   0  0  0  0  0  0  0  0  0  0  0  0
   -9.1040    4.1440  -17.0770 C   0  0  0  0  0  0  0  0  0  0  0  0
   -8.8820    4.2680  -15.7090 C   0  0  0  0  0  0  0  0  0  0  0  0
   -7.6420    4.5950  -15.1870 C   0  0  0  0  0  0  0  0  0  0  0  0
   -7.4990    4.7270  -13.7020 C   0  0  0  0  0  0  0  0  0  0  0  0
   -6.6650    5.4940  -13.2360 O   0  0  0  0  0  0  0  0  0  0  0  0
   -8.3060    3.9530  -12.9370 N   0  0  0  0  0  0  0  0  0  0  0  0
   -8.4190    3.9530  -11.5190 C   0  0  0  0  0  0  0  0  0  0  0  0
   -8.2230    5.1340  -10.8060 C   0  0  0  0  0  0  0  0  0  0  0  0
   -8.3260    5.1430   -9.4250 C   0  0  0  0  0  0  0  0  0  0  0  0
   -8.5460    3.9460   -8.7550 C   0  0  0  0  0  0  0  0  0  0  0  0
   -8.7440    2.7660   -9.4600 C   0  0  0  0  0  0  0  0  0  0  0  0
   -8.6410    2.7440  -10.8460 C   0  0  0  0  0  0  0  0  0  0  0  0
   -9.0350    1.6460   -8.5020 C   0  0  0  0  0  0  0  0  0  0  0  0
   -8.6540    2.2300   -7.2060 N   0  0  0  0  0  0  0  0  0  0  0  0
   -8.7420    3.6980   -7.2850 C   0  0  0  0  0  0  0  0  0  0  0  0
   -6.5710    4.7850  -16.1170 C   0  0  0  0  0  0  0  0  0  0  0  0
  1  2  1  0
  2  3  2  0
  3  4  1  0
  4  5  1  0
  5  6  2  0
  6  7  1  0
  7  8  2  0
  8  9  1  0
  9 10  1  0
 10 11  2  0
 10 12  1  0
 12 13  1  0
 13 14  2  0
 14 15  1  0
 15 16  2  0
 16 17  1  0
 17 18  2  0
 17 19  1  0
 19 20  1  0
 20 21  1  0
  9 22  2  0
  2 22  1  0
  5 22  1  0
 13 18  1  0
 16 21  1  0
M  END
$$$$
