XX01ZVNS2B-x1838_B_301_1_XX01ZVNS2B-x4590+B+203+1__LIG
     RDKit          3D

 23 25  0  0  0  0  0  0  0  0999 V2000
   -3.4420    5.8480  -15.4950 C   0  0  0  0  0  0  0  0  0  0  0  0
   -4.6450    5.4240  -16.2840 C   0  0  0  0  0  0  0  0  0  0  0  0
   -4.5650    5.3240  -17.6860 C   0  0  0  0  0  0  0  0  0  0  0  0
   -5.6600    4.9480  -18.4170 C   0  0  0  0  0  0  0  0  0  0  0  0
   -5.5830    4.8380  -19.9210 C   0  0  0  0  0  0  0  0  0  0  0  0
   -4.4420    5.4900  -20.4730 O   0  0  0  0  0  0  0  0  0  0  0  0
   -6.8760    4.6610  -17.7250 C   0  0  0  0  0  0  0  0  0  0  0  0
   -8.0650    4.2540  -18.3840 C   0  0  0  0  0  0  0  0  0  0  0  0
   -9.1960    3.9900  -17.6770 C   0  0  0  0  0  0  0  0  0  0  0  0
   -9.1930    4.1120  -16.2720 C   0  0  0  0  0  0  0  0  0  0  0  0
   -8.0740    4.5000  -15.5830 C   0  0  0  0  0  0  0  0  0  0  0  0
   -8.1340    4.6520  -14.0780 C   0  0  0  0  0  0  0  0  0  0  0  0
   -7.7690    3.4200  -13.2750 C   0  0  0  0  0  0  0  0  0  0  0  0
   -7.5010    2.3620  -13.8100 O   0  0  0  0  0  0  0  0  0  0  0  0
   -7.7310    3.5320  -11.9320 N   0  0  0  0  0  0  0  0  0  0  0  0
   -7.7360    4.7880  -11.1600 C   0  0  0  0  0  0  0  0  0  0  0  0
   -8.1500    4.3530   -9.7800 C   0  0  0  0  0  0  0  0  0  0  0  0
   -7.5730    2.9430   -9.6340 C   0  0  1  0  0  0  0  0  0  0  0  0
   -8.2670    2.1030   -8.5650 C   0  0  0  0  0  0  0  0  0  0  0  0
   -9.5900    1.6060   -8.9360 N   0  0  0  0  0  0  0  0  0  0  0  0
   -7.6830    2.3580  -11.0450 C   0  0  0  0  0  0  0  0  0  0  0  0
   -6.8790    4.7850  -16.3050 C   0  0  0  0  0  0  0  0  0  0  0  0
   -5.7580    5.1630  -15.6140 N   0  0  0  0  0  0  0  0  0  0  0  0
  1  2  1  0
  2  3  2  0
  3  4  1  0
  4  5  1  0
  5  6  1  0
  4  7  2  0
  7  8  1  0
  8  9  2  0
  9 10  1  0
 10 11  2  0
 11 12  1  0
 12 13  1  0
 13 14  2  0
 13 15  1  0
 15 16  1  0
 16 17  1  0
 17 18  1  0
 18 19  1  1
 19 20  1  0
 18 21  1  0
 11 22  1  0
 22 23  2  0
  2 23  1  0
  7 22  1  0
 15 21  1  0
M  END
$$$$
