A71EV2A-x3867_A_201_1_A71EV2A-x0911+A+147+1__LIG
     RDKit          3D

 20 21  0  0  0  0  0  0  0  0999 V2000
   11.0070   16.6880   19.0520 O   0  0  0  0  0  0  0  0  0  0  0  0
   11.3230   15.5280   19.4300 C   0  0  0  0  0  0  0  0  0  0  0  0
   11.1690   14.4650   18.6430 N   0  0  0  0  0  0  0  0  0  0  0  0
   11.8570   15.3190   20.8180 C   0  0  0  0  0  0  0  0  0  0  0  0
   12.8730   16.1560   21.3260 C   0  0  0  0  0  0  0  0  0  0  0  0
   13.5540   17.2070   20.4880 C   0  0  0  0  0  0  0  0  0  0  0  0
   13.2610   15.9810   22.6550 C   0  0  0  0  0  0  0  0  0  0  0  0
   12.6920   15.0140   23.4620 C   0  0  0  0  0  0  0  0  0  0  0  0
   11.2970   14.3270   21.6390 C   0  0  0  0  0  0  0  0  0  0  0  0
   11.7050   14.1720   22.9630 C   0  0  0  0  0  0  0  0  0  0  0  0
   11.1020   13.1540   23.8810 C   0  0  0  0  0  0  0  0  0  0  0  0
   11.7420   12.7000   24.8230 O   0  0  0  0  0  0  0  0  0  0  0  0
    9.8120   12.8100   23.6430 N   0  0  0  0  0  0  0  0  0  0  0  0
    8.9930   12.0050   24.4820 C   0  0  0  0  0  0  0  0  0  0  0  0
    9.0130   10.6030   24.3610 C   0  0  0  0  0  0  0  0  0  0  0  0
    9.9550    9.8860   23.4280 C   0  0  0  0  0  0  0  0  0  0  0  0
    8.1170   12.6290   25.3720 C   0  0  0  0  0  0  0  0  0  0  0  0
    7.2560   11.8630   26.1430 C   0  0  0  0  0  0  0  0  0  0  0  0
    7.2640   10.4940   26.0320 C   0  0  0  0  0  0  0  0  0  0  0  0
    8.1260    9.8720   25.1480 C   0  0  0  0  0  0  0  0  0  0  0  0
 16 15  1  0
 15 20  2  0
 20 19  1  0
 19 18  2  0
 18 17  1  0
 17 14  2  0
 15 14  1  0
 14 13  1  0
 13 11  1  0
 12 11  2  0
 11 10  1  0
 10  8  1  0
  8  7  2  0
  7  5  1  0
  6  5  1  0
  5  4  2  0
  4  2  1  0
  3  2  1  0
  2  1  2  0
  9  4  1  0
 10  9  2  0
M  END
$$$$
