A71EV2A-x5598_C_201_5_A71EV2A-x0911+A+147+1__LIG
     RDKit          3D

 26 28  0  0  0  0  0  0  0  0999 V2000
   10.3150   16.5750   19.3000 O   0  0  0  0  0  0  0  0  0  0  0  0
   10.7110   15.4190   19.5030 C   0  0  0  0  0  0  0  0  0  0  0  0
   11.0540   14.5910   18.5200 N   0  0  0  0  0  0  0  0  0  0  0  0
   10.7880   14.8530   20.9130 C   0  0  1  0  0  0  0  0  0  0  0  0
   11.9650   15.4650   21.6970 C   0  0  0  0  0  0  0  0  0  0  0  0
   12.0110   14.9250   23.1400 C   0  0  0  0  0  0  0  0  0  0  0  0
   10.6950   15.2050   23.8560 C   0  0  0  0  0  0  0  0  0  0  0  0
    9.5060   15.2040   21.6780 C   0  0  0  0  0  0  0  0  0  0  0  0
    9.5640   14.7060   23.0580 N   0  0  0  0  0  0  0  0  0  0  0  0
    8.7570   13.6680   23.4410 C   0  0  0  0  0  0  0  0  0  0  0  0
    7.9230   13.2060   22.6800 O   0  0  0  0  0  0  0  0  0  0  0  0
    8.8890   13.2250   24.7320 N   0  0  0  0  0  0  0  0  0  0  0  0
    8.1260   12.1430   25.2550 C   0  0  0  0  0  0  0  0  0  0  0  0
    8.4150   10.8400   24.8210 C   0  0  0  0  0  0  0  0  0  0  0  0
    9.7260   10.6160   23.6630 S   0  0  0  0  0  0  0  0  0  0  0  0
    9.7010    8.8490   23.3150 C   0  0  0  0  0  0  0  0  0  0  0  0
    7.1000   12.3390   26.1740 C   0  0  0  0  0  0  0  0  0  0  0  0
    6.3580   11.2730   26.6880 C   0  0  0  0  0  0  0  0  0  0  0  0
    6.6650    9.9810   26.2450 C   0  0  0  0  0  0  0  0  0  0  0  0
    7.6800    9.7690   25.3260 C   0  0  0  0  0  0  0  0  0  0  0  0
    5.3310   11.4940   27.6450 N   0  0  0  0  0  0  0  0  0  0  0  0
    4.6350   10.3340   28.2270 C   0  0  0  0  0  0  0  0  0  0  0  0
    3.8980   10.7440   29.4870 C   0  0  0  0  0  0  0  0  0  0  0  0
    3.0310   11.8640   29.2530 O   0  0  0  0  0  0  0  0  0  0  0  0
    3.7790   12.9970   28.8040 C   0  0  0  0  0  0  0  0  0  0  0  0
    4.4960   12.7010   27.5050 C   0  0  0  0  0  0  0  0  0  0  0  0
 16 15  1  0
 15 14  1  0
 14 20  2  0
 20 19  1  0
 19 18  2  0
 21 18  1  0
 21 26  1  0
 26 25  1  0
 25 24  1  0
 24 23  1  0
 23 22  1  0
 22 21  1  0
 18 17  1  0
 17 13  2  0
 14 13  1  0
 13 12  1  0
 12 10  1  0
 11 10  2  0
 10  9  1  0
  9  7  1  0
  7  6  1  0
  6  5  1  0
  5  4  1  0
  4  2  1  6
  3  2  1  0
  2  1  2  0
  8  4  1  0
  9  8  1  0
M  END
$$$$
