XX01ZVNS2B-x3831_B_203_1_XX01ZVNS2B-x4590+B+203+1__LIG
     RDKit          3D

 22 25  0  0  0  0  0  0  0  0999 V2000
   -6.8020    5.5060  -13.3510 O   0  0  0  0  0  0  0  0  0  0  0  0
   -7.6710    4.7530  -13.7830 C   0  0  0  0  0  0  0  0  0  0  0  0
   -7.8530    4.5650  -15.2580 C   0  0  0  0  0  0  0  0  0  0  0  0
   -6.7700    4.7220  -16.1300 C   0  0  0  0  0  0  0  0  0  0  0  0
   -5.2970    4.8300  -15.8780 C   0  0  0  0  0  0  0  0  0  0  0  0
   -9.1210    4.3620  -15.7940 C   0  0  0  0  0  0  0  0  0  0  0  0
   -9.3160    4.3620  -17.1700 C   0  0  0  0  0  0  0  0  0  0  0  0
   -8.2510    4.5590  -18.0390 C   0  0  0  0  0  0  0  0  0  0  0  0
   -6.9750    4.7300  -17.5040 C   0  0  0  0  0  0  0  0  0  0  0  0
   -5.7560    4.9270  -18.1510 N   0  0  0  0  0  0  0  0  0  0  0  0
   -4.7210    4.9820  -17.2690 C   0  0  0  0  0  0  0  0  0  0  0  0
   -3.5340    5.1020  -17.5680 O   0  0  0  0  0  0  0  0  0  0  0  0
   -8.4930    4.0400  -12.9770 N   0  0  0  0  0  0  0  0  0  0  0  0
   -8.5200    4.0730  -11.5740 C   0  0  0  0  0  0  0  0  0  0  0  0
   -8.7330    2.8920  -10.9750 N   0  0  0  0  0  0  0  0  0  0  0  0
   -8.8290    2.8910   -9.6370 C   0  0  0  0  0  0  0  0  0  0  0  0
   -9.1530    1.7730   -8.7020 C   0  0  0  0  0  0  0  0  0  0  0  0
   -8.8850    2.2840   -7.3670 N   0  0  0  0  0  0  0  0  0  0  0  0
   -8.8440    3.7450   -7.3680 C   0  0  0  0  0  0  0  0  0  0  0  0
   -8.6900    4.0300   -8.8330 C   0  0  0  0  0  0  0  0  0  0  0  0
   -8.4470    5.2360   -9.4820 C   0  0  0  0  0  0  0  0  0  0  0  0
   -8.3650    5.2750  -10.8610 C   0  0  0  0  0  0  0  0  0  0  0  0
 12 11  2  0
 11  5  1  0
  5  4  1  0
  4  9  2  0
  9  8  1  0
  8  7  2  0
  7  6  1  0
  6  3  2  0
  4  3  1  0
  3  2  1  0
  2  1  2  0
 13  2  1  0
 14 13  1  0
 14 22  2  0
 22 21  1  0
 21 20  2  0
 20 16  1  0
 16 15  2  0
 15 14  1  0
 17 16  1  0
 18 17  1  0
 19 18  1  0
 20 19  1  0
 10  9  1  0
 11 10  1  0
M  END
$$$$
