XX01ZVNS2B-x0559_B_301_1_XX01ZVNS2B-x4590+B+203+1__LIG
     RDKit          3D

  7  7  0  0  0  0  0  0  0  0999 V2000
  -10.3570    4.1930  -18.0350 C   0  0  0  0  0  0  0  0  0  0  0  0
   -9.3000    4.2410  -18.7960 C   0  0  0  0  0  0  0  0  0  0  0  0
   -7.9960    4.5650  -18.3190 C   0  0  0  0  0  0  0  0  0  0  0  0
   -7.7370    4.8410  -16.9820 N   0  0  0  0  0  0  0  0  0  0  0  0
   -6.4400    5.0970  -16.9180 C   0  0  0  0  0  0  0  0  0  0  0  0
   -5.8520    5.0020  -18.1140 N   0  0  0  0  0  0  0  0  0  0  0  0
   -6.8220    4.6640  -19.0130 C   0  0  0  0  0  0  0  0  0  0  0  0
  2  1  2  0
  3  2  1  0
  3  7  2  0
  7  6  1  0
  6  5  1  0
  5  4  2  0
  4  3  1  0
M  END
$$$$
