A71EV2A-x4650_A_201_1_A71EV2A-x0911+A+147+1__LIG
     RDKit          3D

 22 23  0  0  0  0  0  0  0  0999 V2000
   10.3330   10.6700   24.7220 F   0  0  0  0  0  0  0  0  0  0  0  0
    9.2750   10.5860   23.9190 C   0  0  0  0  0  0  0  0  0  0  0  0
    9.2260    9.3200   23.5010 F   0  0  0  0  0  0  0  0  0  0  0  0
    9.5630   11.2800   22.8270 F   0  0  0  0  0  0  0  0  0  0  0  0
    8.0050   11.0420   24.5900 C   0  0  0  0  0  0  0  0  0  0  0  0
    7.0960   10.0630   24.9710 C   0  0  0  0  0  0  0  0  0  0  0  0
    5.9570   10.3910   25.6880 C   0  0  0  0  0  0  0  0  0  0  0  0
    5.7100   11.6960   26.0270 C   0  0  0  0  0  0  0  0  0  0  0  0
    6.5920   12.6880   25.6370 C   0  0  0  0  0  0  0  0  0  0  0  0
    7.7440   12.3810   24.9150 C   0  0  0  0  0  0  0  0  0  0  0  0
    8.6940   13.4940   24.5330 C   0  0  0  0  0  0  0  0  0  0  0  0
    8.4840   13.9670   23.1050 C   0  0  0  0  0  0  0  0  0  0  0  0
    7.6030   13.4850   22.4110 O   0  0  0  0  0  0  0  0  0  0  0  0
    9.2830   14.9590   22.6570 N   0  0  0  0  0  0  0  0  0  0  0  0
   10.2910   15.6640   23.4660 C   0  0  0  0  0  0  0  0  0  0  0  0
   11.6470   15.6560   22.7840 C   0  0  0  0  0  0  0  0  0  0  0  0
   11.5350   16.1490   21.3360 C   0  0  0  0  0  0  0  0  0  0  0  0
    9.1530   15.4700   21.2880 C   0  0  0  0  0  0  0  0  0  0  0  0
   10.4860   15.3490   20.5460 C   0  0  1  0  0  0  0  0  0  0  0  0
   10.3960   15.8230   19.1050 C   0  0  0  0  0  0  0  0  0  0  0  0
   10.0750   16.9830   18.8340 O   0  0  0  0  0  0  0  0  0  0  0  0
   10.6810   14.9190   18.1790 N   0  0  0  0  0  0  0  0  0  0  0  0
 22 20  1  0
 21 20  2  0
 19 20  1  6
 19 17  1  0
 17 16  1  0
 16 15  1  0
 15 14  1  0
 14 12  1  0
 13 12  2  0
 12 11  1  0
 11 10  1  0
 10  9  2  0
  9  8  1  0
  8  7  2  0
  7  6  1  0
  6  5  2  0
 10  5  1  0
  5  2  1  0
  3  2  1  0
  4  2  1  0
  2  1  1  0
 18 14  1  0
 19 18  1  0
M  END
$$$$
