A71EV2A-x3895_A_201_1_A71EV2A-x0911+A+147+1__LIG
     RDKit          3D

 18 19  0  0  0  0  0  0  0  0999 V2000
   11.7080   15.4730   24.2950 O   0  0  0  0  0  0  0  0  0  0  0  0
   11.2000   15.2710   23.1990 C   0  0  0  0  0  0  0  0  0  0  0  0
   11.7440   15.6900   21.8610 C   0  0  0  0  0  0  0  0  0  0  0  0
   10.9710   14.7930   20.8970 C   0  0  2  0  0  0  0  0  0  0  0  0
   10.8360   15.3320   19.4800 C   0  0  0  0  0  0  0  0  0  0  0  0
   10.4440   16.4880   19.2670 O   0  0  0  0  0  0  0  0  0  0  0  0
   11.0940   14.4620   18.5080 N   0  0  0  0  0  0  0  0  0  0  0  0
    9.6090   14.6520   21.5860 C   0  0  0  0  0  0  0  0  0  0  0  0
    9.9860   14.7170   23.0020 N   0  0  0  0  0  0  0  0  0  0  0  0
    9.0460   14.3110   24.0530 C   0  0  0  0  0  0  0  0  0  0  0  0
    8.8620   12.8140   24.1580 C   0  0  0  0  0  0  0  0  0  0  0  0
    7.8460   12.3080   24.9700 C   0  0  0  0  0  0  0  0  0  0  0  0
    7.1020   13.2570   25.6260 O   0  0  0  0  0  0  0  0  0  0  0  0
    5.9910   12.8050   26.4190 C   0  0  0  0  0  0  0  0  0  0  0  0
    9.6780   11.9060   23.4770 C   0  0  0  0  0  0  0  0  0  0  0  0
    9.4760   10.5400   23.6030 C   0  0  0  0  0  0  0  0  0  0  0  0
    8.4680   10.0620   24.4110 C   0  0  0  0  0  0  0  0  0  0  0  0
    7.6480   10.9410   25.1010 C   0  0  0  0  0  0  0  0  0  0  0  0
 14 13  1  0
 13 12  1  0
 12 18  2  0
 18 17  1  0
 17 16  2  0
 16 15  1  0
 15 11  2  0
 12 11  1  0
 11 10  1  0
 10  9  1  0
  9  8  1  0
  8  4  1  0
  4  5  1  6
  7  5  1  0
  6  5  2  0
  4  3  1  0
  3  2  1  0
  9  2  1  0
  2  1  2  0
M  END
$$$$
