A71EV2A-x3392_A_201_1_A71EV2A-x0911+A+147+1__LIG
     RDKit          3D

 19 21  0  0  0  0  0  0  0  0999 V2000
   10.1360   13.5680   25.0520 O   0  0  0  0  0  0  0  0  0  0  0  0
   10.0020   12.9170   24.0320 C   0  0  0  0  0  0  0  0  0  0  0  0
    9.1090   11.8270   23.9810 N   0  0  0  0  0  0  0  0  0  0  0  0
    8.0590   11.5990   24.8810 C   0  0  0  0  0  0  0  0  0  0  0  0
    7.3040   12.5180   25.5990 C   0  0  0  0  0  0  0  0  0  0  0  0
    6.2980   12.0490   26.4330 C   0  0  0  0  0  0  0  0  0  0  0  0
    6.0470   10.6940   26.5390 C   0  0  0  0  0  0  0  0  0  0  0  0
    6.8010    9.7850   25.8170 C   0  0  0  0  0  0  0  0  0  0  0  0
    7.8190   10.2330   24.9880 C   0  0  0  0  0  0  0  0  0  0  0  0
    8.7840    9.4680   24.1280 C   0  0  0  0  0  0  0  0  0  0  0  0
    9.5160   10.5610   23.3470 C   0  0  0  0  0  0  0  0  0  0  0  0
   10.6860   13.1290   22.9020 N   0  0  0  0  0  0  0  0  0  0  0  0
   11.5480   14.2950   22.7590 C   0  0  0  0  0  0  0  0  0  0  0  0
   12.0500   14.4520   21.3400 C   0  0  0  0  0  0  0  0  0  0  0  0
   11.0090   15.1710   20.5440 C   0  0  0  0  0  0  0  0  0  0  0  0
   10.3770   16.3030   21.0300 N   0  0  0  0  0  0  0  0  0  0  0  0
    9.5810   16.6430   20.0850 C   0  0  0  0  0  0  0  0  0  0  0  0
    9.6070   15.8520   18.9940 O   0  0  0  0  0  0  0  0  0  0  0  0
   10.5370   14.9090   19.3190 C   0  0  0  0  0  0  0  0  0  0  0  0
  2  1  2  0
 12  2  1  0
 13 12  1  0
 14 13  1  0
 15 14  1  0
 15 19  2  0
 19 18  1  0
 18 17  1  0
 17 16  2  0
 16 15  1  0
  3  2  1  0
  3 11  1  0
 11 10  1  0
 10  9  1  0
  9  8  1  0
  8  7  2  0
  7  6  1  0
  6  5  2  0
  5  4  1  0
  9  4  2  0
  4  3  1  0
M  END
$$$$
