A71EV2A-x4018_C_201_1_A71EV2A-x0911+A+147+1__LIG
     RDKit          3D

 21 22  0  0  0  0  0  0  0  0999 V2000
   10.3380   16.7450   19.1040 O   0  0  0  0  0  0  0  0  0  0  0  0
   10.6520   15.5920   19.4310 C   0  0  0  0  0  0  0  0  0  0  0  0
   10.9640   14.6460   18.5590 N   0  0  0  0  0  0  0  0  0  0  0  0
   10.6530   15.1690   20.8880 C   0  0  1  0  0  0  0  0  0  0  0  0
   11.8600   15.8100   21.5790 C   0  0  0  0  0  0  0  0  0  0  0  0
   12.3160   15.0630   22.8130 C   0  0  0  0  0  0  0  0  0  0  0  0
   11.4220   15.2810   24.0050 C   0  0  0  0  0  0  0  0  0  0  0  0
    9.2920   15.5230   21.4990 C   0  0  0  0  0  0  0  0  0  0  0  0
    9.1890   15.7010   23.0130 C   0  0  0  0  0  0  0  0  0  0  0  0
   10.0540   14.8020   23.7850 N   0  0  0  0  0  0  0  0  0  0  0  0
    9.6490   13.6580   24.3720 C   0  0  0  0  0  0  0  0  0  0  0  0
   10.3190   13.0900   25.2270 O   0  0  0  0  0  0  0  0  0  0  0  0
    8.2740   13.1430   24.0020 C   0  0  0  0  0  0  0  0  0  0  0  0
    7.8310   12.0910   24.9910 C   0  0  0  0  0  0  0  0  0  0  0  0
    8.1350   10.7470   24.7760 C   0  0  0  0  0  0  0  0  0  0  0  0
    9.0850   10.5200   23.8140 O   0  0  0  0  0  0  0  0  0  0  0  0
    9.5880    9.1980   23.6580 C   0  0  0  0  0  0  0  0  0  0  0  0
    6.9960   12.4180   26.0540 C   0  0  0  0  0  0  0  0  0  0  0  0
    6.4270   11.4310   26.8370 C   0  0  0  0  0  0  0  0  0  0  0  0
    6.6760   10.1100   26.5680 C   0  0  0  0  0  0  0  0  0  0  0  0
    7.5320    9.7550   25.5350 C   0  0  0  0  0  0  0  0  0  0  0  0
 17 16  1  0
 16 15  1  0
 15 21  2  0
 21 20  1  0
 20 19  2  0
 19 18  1  0
 18 14  2  0
 15 14  1  0
 14 13  1  0
 13 11  1  0
 12 11  2  0
 11 10  1  0
 10  7  1  0
  7  6  1  0
  6  5  1  0
  5  4  1  0
  4  2  1  6
  3  2  1  0
  2  1  2  0
  8  4  1  0
  9  8  1  0
 10  9  1  0
M  END
$$$$
