A71EV2A-x4346_A_201_1_A71EV2A-x0911+A+147+1__LIG
     RDKit          3D

 21 23  0  0  0  0  0  0  0  0999 V2000
    7.9920   13.4400   22.6310 O   0  0  0  0  0  0  0  0  0  0  0  0
    8.7960   13.9660   23.3850 C   0  0  0  0  0  0  0  0  0  0  0  0
    9.6170   14.9550   22.9740 N   0  0  0  0  0  0  0  0  0  0  0  0
   10.7100   15.5370   23.7670 C   0  0  0  0  0  0  0  0  0  0  0  0
   12.0350   15.3840   23.0420 C   0  0  0  0  0  0  0  0  0  0  0  0
   11.9420   15.9160   21.6040 C   0  0  0  0  0  0  0  0  0  0  0  0
    9.4890   15.5460   21.6370 C   0  0  0  0  0  0  0  0  0  0  0  0
   10.7690   15.2810   20.8400 C   0  0  1  0  0  0  0  0  0  0  0  0
   10.7240   15.7510   19.3960 C   0  0  0  0  0  0  0  0  0  0  0  0
   10.3510   16.8910   19.1070 O   0  0  0  0  0  0  0  0  0  0  0  0
   11.0840   14.8610   18.4870 N   0  0  0  0  0  0  0  0  0  0  0  0
    8.8990   13.5330   24.8350 C   0  0  0  0  0  0  0  0  0  0  0  0
    8.2260   12.1990   25.0660 C   0  0  0  0  0  0  0  0  0  0  0  0
    8.6950   11.0390   24.4130 C   0  0  0  0  0  0  0  0  0  0  0  0
    9.7480   10.7890   23.5980 N   0  0  0  0  0  0  0  0  0  0  0  0
    9.7220    9.4830   23.2980 O   0  0  0  0  0  0  0  0  0  0  0  0
    8.6830    8.8660   23.8820 N   0  0  0  0  0  0  0  0  0  0  0  0
    8.0020    9.8080   24.6010 C   0  0  0  0  0  0  0  0  0  0  0  0
    6.8670    9.7540   25.4240 C   0  0  0  0  0  0  0  0  0  0  0  0
    6.4390   10.9000   26.0760 C   0  0  0  0  0  0  0  0  0  0  0  0
    7.1100   12.1020   25.8990 C   0  0  0  0  0  0  0  0  0  0  0  0
 11  9  1  0
 10  9  2  0
  8  9  1  6
  8  6  1  0
  6  5  1  0
  5  4  1  0
  4  3  1  0
  3  2  1  0
  2  1  2  0
 12  2  1  0
 13 12  1  0
 13 21  2  0
 21 20  1  0
 20 19  2  0
 19 18  1  0
 18 17  2  0
 17 16  1  0
 16 15  1  0
 15 14  2  0
 14 13  1  0
 18 14  1  0
  7  3  1  0
  8  7  1  0
M  END
$$$$
