A71EV2A-x4310_A_201_1_A71EV2A-x0911+A+147+1__LIG
     RDKit          3D

 24 25  0  0  0  0  0  0  0  0999 V2000
    5.5720   11.8560   28.5990 F   0  0  0  0  0  0  0  0  0  0  0  0
    5.0530   11.4250   27.4590 C   0  0  0  0  0  0  0  0  0  0  0  0
    4.4480   10.2500   27.7120 F   0  0  0  0  0  0  0  0  0  0  0  0
    4.0840   12.2510   27.1300 F   0  0  0  0  0  0  0  0  0  0  0  0
    6.0930   11.3120   26.3880 C   0  0  0  0  0  0  0  0  0  0  0  0
    6.7930   12.4070   25.8720 C   0  0  0  0  0  0  0  0  0  0  0  0
    6.4680   13.6760   26.3120 O   0  0  0  0  0  0  0  0  0  0  0  0
    5.6560   14.4620   25.4330 C   0  0  0  0  0  0  0  0  0  0  0  0
    6.4390   10.0490   25.9310 C   0  0  0  0  0  0  0  0  0  0  0  0
    7.4570    9.8720   25.0100 C   0  0  0  0  0  0  0  0  0  0  0  0
    8.1610   10.9590   24.5190 C   0  0  0  0  0  0  0  0  0  0  0  0
    7.8310   12.2380   24.9500 C   0  0  0  0  0  0  0  0  0  0  0  0
    8.5650   13.3690   24.5180 N   0  0  0  0  0  0  0  0  0  0  0  0
    8.5340   13.7740   23.2260 C   0  0  0  0  0  0  0  0  0  0  0  0
    7.7730   13.2750   22.4140 O   0  0  0  0  0  0  0  0  0  0  0  0
    9.3220   14.8430   22.9070 N   0  0  0  0  0  0  0  0  0  0  0  0
    9.3140   15.3710   21.5400 C   0  0  0  0  0  0  0  0  0  0  0  0
   10.6440   15.0460   20.8580 C   0  0  1  0  0  0  0  0  0  0  0  0
   10.6510   15.5470   19.4240 C   0  0  0  0  0  0  0  0  0  0  0  0
   10.3340   16.7110   19.1500 O   0  0  0  0  0  0  0  0  0  0  0  0
   10.9710   14.6480   18.5000 N   0  0  0  0  0  0  0  0  0  0  0  0
   11.8010   15.6360   21.6750 C   0  0  0  0  0  0  0  0  0  0  0  0
   11.7790   15.1160   23.1150 C   0  0  0  0  0  0  0  0  0  0  0  0
   10.4160   15.3330   23.7620 C   0  0  0  0  0  0  0  0  0  0  0  0
  8  7  1  0
  7  6  1  0
  6 12  2  0
 13 12  1  0
 14 13  1  0
 15 14  2  0
 16 14  1  0
 16 24  1  0
 24 23  1  0
 23 22  1  0
 22 18  1  0
 18 19  1  6
 21 19  1  0
 20 19  2  0
 18 17  1  0
 17 16  1  0
 12 11  1  0
 11 10  2  0
 10  9  1  0
  9  5  2  0
  6  5  1  0
  5  2  1  0
  3  2  1  0
  4  2  1  0
  2  1  1  0
M  END
$$$$
