A71EV2A-x4979_C_201_1_A71EV2A-x0911+A+147+1__LIG
     RDKit          3D

 19 20  0  0  0  0  0  0  0  0999 V2000
    9.6380   10.1730   23.7360 Cl  0  0  0  0  0  0  0  0  0  0  0  0
    8.3450   10.7070   24.7590 C   0  0  0  0  0  0  0  0  0  0  0  0
    7.4410    9.7850   25.2540 C   0  0  0  0  0  0  0  0  0  0  0  0
    6.4800   10.1180   26.1160 N   0  0  0  0  0  0  0  0  0  0  0  0
    6.4510   11.4040   26.4550 C   0  0  0  0  0  0  0  0  0  0  0  0
    7.2590   12.3680   26.0350 N   0  0  0  0  0  0  0  0  0  0  0  0
    8.2310   12.0150   25.1630 C   0  0  0  0  0  0  0  0  0  0  0  0
    9.2280   13.0760   24.7650 C   0  0  0  0  0  0  0  0  0  0  0  0
    8.9420   13.6500   23.3850 C   0  0  0  0  0  0  0  0  0  0  0  0
    8.0180   13.2190   22.7040 O   0  0  0  0  0  0  0  0  0  0  0  0
    9.7160   14.6850   22.9740 N   0  0  0  0  0  0  0  0  0  0  0  0
   10.7820   15.3420   23.7510 C   0  0  0  0  0  0  0  0  0  0  0  0
   12.1240   15.2020   23.0530 C   0  0  0  0  0  0  0  0  0  0  0  0
   12.0380   15.7250   21.6070 C   0  0  0  0  0  0  0  0  0  0  0  0
    9.5730   15.2230   21.6160 C   0  0  0  0  0  0  0  0  0  0  0  0
   10.8890   15.0190   20.8540 C   0  0  1  0  0  0  0  0  0  0  0  0
   10.7580   15.5270   19.4300 C   0  0  0  0  0  0  0  0  0  0  0  0
   10.3780   16.6940   19.1980 O   0  0  0  0  0  0  0  0  0  0  0  0
   11.0260   14.6350   18.4790 N   0  0  0  0  0  0  0  0  0  0  0  0
 19 17  1  0
 18 17  2  0
 16 17  1  6
 16 14  1  0
 14 13  1  0
 13 12  1  0
 12 11  1  0
 11  9  1  0
 10  9  2  0
  9  8  1  0
  8  7  1  0
  7  6  2  0
  6  5  1  0
  5  4  2  0
  4  3  1  0
  3  2  2  0
  7  2  1  0
  2  1  1  0
 15 11  1  0
 16 15  1  0
M  END
$$$$
