A71EV2A-x4336_A_201_1_A71EV2A-x0911+A+147+1__LIG
     RDKit          3D

 20 21  0  0  0  0  0  0  0  0999 V2000
   10.4060   11.7370   23.2580 Cl  0  0  0  0  0  0  0  0  0  0  0  0
    9.0220   11.2810   24.1820 C   0  0  0  0  0  0  0  0  0  0  0  0
    8.6250    9.9510   24.2300 C   0  0  0  0  0  0  0  0  0  0  0  0
    9.5370    8.7300   23.4010 Cl  0  0  0  0  0  0  0  0  0  0  0  0
    7.5170    9.5710   24.9640 C   0  0  0  0  0  0  0  0  0  0  0  0
    6.8170   10.5300   25.6770 C   0  0  0  0  0  0  0  0  0  0  0  0
    7.2100   11.8580   25.6370 C   0  0  0  0  0  0  0  0  0  0  0  0
    8.3080   12.2600   24.8780 C   0  0  0  0  0  0  0  0  0  0  0  0
    8.6340   13.7320   24.7600 C   0  0  0  0  0  0  0  0  0  0  0  0
    8.5220   14.2010   23.3220 C   0  0  0  0  0  0  0  0  0  0  0  0
    7.7220   13.6820   22.5540 O   0  0  0  0  0  0  0  0  0  0  0  0
    9.3770   15.1670   22.9220 N   0  0  0  0  0  0  0  0  0  0  0  0
   10.4140   15.7940   23.7580 C   0  0  0  0  0  0  0  0  0  0  0  0
   11.7990   15.5690   23.1610 C   0  0  0  0  0  0  0  0  0  0  0  0
   11.8410   15.9730   21.6810 C   0  0  0  0  0  0  0  0  0  0  0  0
    9.3720   15.6590   21.5420 C   0  0  0  0  0  0  0  0  0  0  0  0
   10.7060   15.3190   20.8740 C   0  0  1  0  0  0  0  0  0  0  0  0
   10.7410   15.7400   19.4130 C   0  0  0  0  0  0  0  0  0  0  0  0
   10.4890   16.9000   19.0780 O   0  0  0  0  0  0  0  0  0  0  0  0
   11.0520   14.7910   18.5450 N   0  0  0  0  0  0  0  0  0  0  0  0
 20 18  1  0
 19 18  2  0
 17 18  1  6
 17 15  1  0
 15 14  1  0
 14 13  1  0
 13 12  1  0
 12 10  1  0
 11 10  2  0
 10  9  1  0
  9  8  1  0
  8  7  2  0
  7  6  1  0
  6  5  2  0
  5  3  1  0
  4  3  1  0
  3  2  2  0
  8  2  1  0
  2  1  1  0
 16 12  1  0
 17 16  1  0
M  END
$$$$
