A71EV2A-x4727_A_201_1_A71EV2A-x0911+A+147+1__LIG
     RDKit          3D

 21 22  0  0  0  0  0  0  0  0999 V2000
   10.3870   16.7620   19.0940 O   0  0  0  0  0  0  0  0  0  0  0  0
   10.6620   15.5800   19.3030 C   0  0  0  0  0  0  0  0  0  0  0  0
   10.9030   14.7140   18.3350 N   0  0  0  0  0  0  0  0  0  0  0  0
   10.7140   15.0260   20.7150 C   0  0  1  0  0  0  0  0  0  0  0  0
   11.7810   15.7250   21.5530 C   0  0  0  0  0  0  0  0  0  0  0  0
   11.8260   15.1520   22.9650 C   0  0  0  0  0  0  0  0  0  0  0  0
   10.4600   15.1930   23.6160 C   0  0  0  0  0  0  0  0  0  0  0  0
    9.3770   15.2540   21.4080 C   0  0  0  0  0  0  0  0  0  0  0  0
    9.4210   14.6490   22.7370 N   0  0  0  0  0  0  0  0  0  0  0  0
    8.6240   13.5960   23.0440 C   0  0  0  0  0  0  0  0  0  0  0  0
    7.6620   13.2890   22.3720 O   0  0  0  0  0  0  0  0  0  0  0  0
    8.9700   12.9070   24.1710 N   0  0  0  0  0  0  0  0  0  0  0  0
    7.9770   12.5500   25.1000 C   0  0  0  0  0  0  0  0  0  0  0  0
    7.1660   13.4500   25.8720 C   0  0  0  0  0  0  0  0  0  0  0  0
    7.2280   14.9360   25.9920 C   0  0  0  0  0  0  0  0  0  0  0  0
    6.2700   12.7790   26.5660 N   0  0  0  0  0  0  0  0  0  0  0  0
    6.4920   11.4700   26.2800 N   0  0  0  0  0  0  0  0  0  0  0  0
    5.6410   10.4440   26.8680 C   0  0  0  0  0  0  0  0  0  0  0  0
    7.5200   11.2950   25.4140 C   0  0  0  0  0  0  0  0  0  0  0  0
    8.0120    9.6970   24.9520 S   0  0  0  0  0  0  0  0  0  0  0  0
    9.5370    9.9660   24.1280 C   0  0  0  0  0  0  0  0  0  0  0  0
 21 20  1  0
 20 19  1  0
 19 13  2  0
 13 12  1  0
 12 10  1  0
 11 10  2  0
 10  9  1  0
  9  7  1  0
  7  6  1  0
  6  5  1  0
  5  4  1  0
  4  2  1  6
  3  2  1  0
  2  1  2  0
  8  4  1  0
  9  8  1  0
 14 13  1  0
 15 14  1  0
 16 14  2  0
 17 16  1  0
 19 17  1  0
 18 17  1  0
M  END
$$$$
