A71EV2A-x5090_A_201_2_A71EV2A-x0911+A+147+1__LIG
     RDKit          3D

 19 20  0  0  0  0  0  0  0  0999 V2000
   10.3500   16.4720   19.4130 O   0  0  0  0  0  0  0  0  0  0  0  0
   10.8080   15.3340   19.5910 C   0  0  0  0  0  0  0  0  0  0  0  0
   11.1700   14.5280   18.5880 N   0  0  0  0  0  0  0  0  0  0  0  0
   10.8830   14.7280   20.9830 C   0  0  1  0  0  0  0  0  0  0  0  0
   11.9170   15.4330   21.8740 C   0  0  0  0  0  0  0  0  0  0  0  0
   11.9560   14.7830   23.2650 C   0  0  0  0  0  0  0  0  0  0  0  0
   10.5740   14.7720   23.8830 C   0  0  0  0  0  0  0  0  0  0  0  0
    9.5050   14.7830   21.6450 C   0  0  0  0  0  0  0  0  0  0  0  0
    9.5690   14.1620   22.9830 N   0  0  0  0  0  0  0  0  0  0  0  0
    8.1290   13.9090   23.6450 S   0  0  0  0  0  0  0  0  0  0  0  0
    7.3060   13.3700   22.6100 O   0  0  0  0  0  0  0  0  0  0  0  0
    7.6940   15.0930   24.3210 O   0  0  0  0  0  0  0  0  0  0  0  0
    8.3020   12.8120   24.8330 N   0  0  0  0  0  0  0  0  0  0  0  0
    8.5070   11.4470   24.5280 C   0  0  0  0  0  0  0  0  0  0  0  0
    9.3460   10.9070   23.5810 C   0  0  0  0  0  0  0  0  0  0  0  0
    7.8710   10.3560   25.1160 C   0  0  0  0  0  0  0  0  0  0  0  0
    8.2720    9.2130   24.5810 N   0  0  0  0  0  0  0  0  0  0  0  0
    9.1840    9.5780   23.6470 N   0  0  0  0  0  0  0  0  0  0  0  0
    9.9110    8.5590   22.9020 C   0  0  0  0  0  0  0  0  0  0  0  0
 19 18  1  0
 18 15  1  0
 15 14  2  0
 14 13  1  0
 13 10  1  0
 11 10  2  0
 12 10  2  0
 10  9  1  0
  9  7  1  0
  7  6  1  0
  6  5  1  0
  5  4  1  0
  4  2  1  6
  3  2  1  0
  2  1  2  0
  8  4  1  0
  9  8  1  0
 16 14  1  0
 17 16  2  0
 18 17  1  0
M  END
$$$$
