A71EV2A-x4903_A_201_1_A71EV2A-x0911+A+147+1__LIG
     RDKit          3D

 21 22  0  0  0  0  0  0  0  0999 V2000
   10.3690   16.6690   19.2200 O   0  0  0  0  0  0  0  0  0  0  0  0
   10.7230   15.5070   19.4640 C   0  0  0  0  0  0  0  0  0  0  0  0
   11.0690   14.6560   18.5050 N   0  0  0  0  0  0  0  0  0  0  0  0
   10.7000   14.9730   20.8830 C   0  0  1  0  0  0  0  0  0  0  0  0
   11.7940   15.5780   21.7710 C   0  0  0  0  0  0  0  0  0  0  0  0
   11.7210   14.9350   23.1600 C   0  0  0  0  0  0  0  0  0  0  0  0
   10.3240   15.0540   23.7720 C   0  0  0  0  0  0  0  0  0  0  0  0
    9.3120   15.1680   21.5010 C   0  0  0  0  0  0  0  0  0  0  0  0
    9.2800   14.5810   22.8440 N   0  0  0  0  0  0  0  0  0  0  0  0
    8.3750   13.6200   23.1380 C   0  0  0  0  0  0  0  0  0  0  0  0
    7.4900   13.2610   22.4000 O   0  0  0  0  0  0  0  0  0  0  0  0
    8.5570   13.1580   24.4080 O   0  0  0  0  0  0  0  0  0  0  0  0
    7.6690   12.1690   24.8360 C   0  0  0  0  0  0  0  0  0  0  0  0
    7.8760   10.8290   24.4650 C   0  0  0  0  0  0  0  0  0  0  0  0
    8.9180   10.6110   23.5980 O   0  0  0  0  0  0  0  0  0  0  0  0
    9.2080    9.2570   23.2250 C   0  0  0  0  0  0  0  0  0  0  0  0
    6.6580   12.5050   25.7120 C   0  0  0  0  0  0  0  0  0  0  0  0
    5.8510   11.4990   26.2110 C   0  0  0  0  0  0  0  0  0  0  0  0
    4.5990   11.9110   27.3490 Cl  0  0  0  0  0  0  0  0  0  0  0  0
    6.0410   10.1770   25.8660 C   0  0  0  0  0  0  0  0  0  0  0  0
    7.0610    9.8390   24.9870 C   0  0  0  0  0  0  0  0  0  0  0  0
 16 15  1  0
 15 14  1  0
 14 21  2  0
 21 20  1  0
 20 18  2  0
 19 18  1  0
 18 17  1  0
 17 13  2  0
 14 13  1  0
 13 12  1  0
 12 10  1  0
 11 10  2  0
 10  9  1  0
  9  7  1  0
  7  6  1  0
  6  5  1  0
  5  4  1  0
  4  2  1  6
  3  2  1  0
  2  1  2  0
  8  4  1  0
  9  8  1  0
M  END
$$$$
