A71EV2A-x5036_C_201_2_A71EV2A-x0911+A+147+1__LIG
     RDKit          3D

 19 20  0  0  0  0  0  0  0  0999 V2000
   11.3970   14.8490   25.0710 O   0  0  0  0  0  0  0  0  0  0  0  0
   11.2920   14.9550   23.8590 C   0  0  0  0  0  0  0  0  0  0  0  0
   12.5150   15.2140   23.0160 C   0  0  0  0  0  0  0  0  0  0  0  0
   12.2220   15.7510   21.6140 C   0  0  0  0  0  0  0  0  0  0  0  0
   11.0750   14.9740   20.9460 C   0  0  2  0  0  0  0  0  0  0  0  0
   10.8260   15.4780   19.5340 C   0  0  0  0  0  0  0  0  0  0  0  0
   10.4620   16.6390   19.3250 O   0  0  0  0  0  0  0  0  0  0  0  0
   10.9980   14.5960   18.5610 N   0  0  0  0  0  0  0  0  0  0  0  0
    9.8270   15.1610   21.8200 C   0  0  0  0  0  0  0  0  0  0  0  0
   10.0990   14.8460   23.2270 N   0  0  0  0  0  0  0  0  0  0  0  0
    8.9100   14.4440   23.9790 C   0  0  0  0  0  0  0  0  0  0  0  0
    8.7200   12.9480   24.0750 C   0  0  0  0  0  0  0  0  0  0  0  0
    9.5550   12.0630   23.4040 C   0  0  0  0  0  0  0  0  0  0  0  0
    9.4330   10.6940   23.5860 C   0  0  0  0  0  0  0  0  0  0  0  0
    8.4700   10.1890   24.4380 C   0  0  0  0  0  0  0  0  0  0  0  0
    7.7380   12.4370   24.9140 C   0  0  0  0  0  0  0  0  0  0  0  0
    7.6180   11.0670   25.0950 C   0  0  0  0  0  0  0  0  0  0  0  0
    6.6470   10.5270   25.9010 O   0  0  0  0  0  0  0  0  0  0  0  0
    5.7850   11.4260   26.6090 C   0  0  0  0  0  0  0  0  0  0  0  0
 19 18  1  0
 18 17  1  0
 17 15  2  0
 15 14  1  0
 14 13  2  0
 13 12  1  0
 12 11  1  0
 11 10  1  0
 10  9  1  0
  9  5  1  0
  5  6  1  6
  8  6  1  0
  7  6  2  0
  5  4  1  0
  4  3  1  0
  3  2  1  0
 10  2  1  0
  2  1  2  0
 16 12  2  0
 17 16  1  0
M  END
$$$$
