A71EV2A-x5366_A_201_2_A71EV2A-x0911+A+147+1__LIG
     RDKit          3D

 22 23  0  0  0  0  0  0  0  0999 V2000
   10.5110   16.7930   19.2600 O   0  0  0  0  0  0  0  0  0  0  0  0
   10.8360   15.6180   19.4460 C   0  0  0  0  0  0  0  0  0  0  0  0
   11.0990   14.7790   18.4550 N   0  0  0  0  0  0  0  0  0  0  0  0
   10.8770   15.0250   20.8450 C   0  0  2  0  0  0  0  0  0  0  0  0
    9.5220   15.1790   21.5400 C   0  0  0  0  0  0  0  0  0  0  0  0
   11.9690   15.6800   21.7060 C   0  0  0  0  0  0  0  0  0  0  0  0
   11.9730   15.0930   23.1210 C   0  0  0  0  0  0  0  0  0  0  0  0
   10.6030   15.1790   23.7950 C   0  0  1  0  0  0  0  0  0  0  0  0
   10.2660   16.5860   24.2470 C   0  0  0  0  0  0  0  0  0  0  0  0
    9.5550   14.6390   22.9030 N   0  0  0  0  0  0  0  0  0  0  0  0
    8.6270   13.7350   23.3110 C   0  0  0  0  0  0  0  0  0  0  0  0
    7.7230   13.3760   22.5660 O   0  0  0  0  0  0  0  0  0  0  0  0
    8.7060   13.2140   24.7360 C   0  0  0  0  0  0  0  0  0  0  0  0
    7.7130   12.1050   25.0020 C   0  0  0  0  0  0  0  0  0  0  0  0
    7.9130   10.7760   24.5980 C   0  0  0  0  0  0  0  0  0  0  0  0
    9.2830   10.4770   23.5260 S   0  0  0  0  0  0  0  0  0  0  0  0
    9.3010    8.6840   23.3570 C   0  0  0  0  0  0  0  0  0  0  0  0
    6.6240   12.3930   25.8180 C   0  0  0  0  0  0  0  0  0  0  0  0
    5.7910   11.3770   26.2420 C   0  0  0  0  0  0  0  0  0  0  0  0
    4.3320   11.8090   27.3810 Br  0  0  0  0  0  0  0  0  0  0  0  0
    5.9960   10.0670   25.8730 C   0  0  0  0  0  0  0  0  0  0  0  0
    7.0640    9.7630   25.0470 C   0  0  0  0  0  0  0  0  0  0  0  0
 17 16  1  0
 16 15  1  0
 15 22  2  0
 22 21  1  0
 21 19  2  0
 20 19  1  0
 19 18  1  0
 18 14  2  0
 15 14  1  0
 14 13  1  0
 13 11  1  0
 12 11  2  0
 11 10  1  0
 10  5  1  0
  5  4  1  0
  4  2  1  6
  3  2  1  0
  2  1  2  0
  6  4  1  0
  7  6  1  0
  8  7  1  0
 10  8  1  0
  8  9  1  6
M  END
$$$$
