A71EV2A-x4943_C_201_1_A71EV2A-x0911+A+147+1__LIG
     RDKit          3D

 21 23  0  0  0  0  0  0  0  0999 V2000
    7.3440   13.4930   22.3240 O   0  0  0  0  0  0  0  0  0  0  0  0
    8.1280   13.9080   23.1540 C   0  0  0  0  0  0  0  0  0  0  0  0
    9.0140   14.9070   22.8750 N   0  0  0  0  0  0  0  0  0  0  0  0
    9.9670   15.5500   23.7860 C   0  0  0  0  0  0  0  0  0  0  0  0
   11.3900   15.3920   23.2930 C   0  0  0  0  0  0  0  0  0  0  0  0
   11.5410   15.8760   21.8350 C   0  0  0  0  0  0  0  0  0  0  0  0
    9.0950   15.4160   21.5010 C   0  0  0  0  0  0  0  0  0  0  0  0
   10.5050   15.1740   20.9340 C   0  0  1  0  0  0  0  0  0  0  0  0
   10.5910   15.6560   19.4960 C   0  0  0  0  0  0  0  0  0  0  0  0
   10.2310   16.8110   19.1850 O   0  0  0  0  0  0  0  0  0  0  0  0
   10.8920   14.7180   18.5950 N   0  0  0  0  0  0  0  0  0  0  0  0
    8.0810   13.3430   24.5710 C   0  0  2  0  0  0  0  0  0  0  0  0
    8.2610   11.8410   24.4320 C   0  0  0  0  0  0  0  0  0  0  0  0
    9.2490   11.3700   23.5690 C   0  0  0  0  0  0  0  0  0  0  0  0
    9.4130   10.0080   23.3480 C   0  0  0  0  0  0  0  0  0  0  0  0
    8.6200    9.1000   23.9990 C   0  0  0  0  0  0  0  0  0  0  0  0
    7.6670    9.5350   24.8970 C   0  0  0  0  0  0  0  0  0  0  0  0
    7.4780   10.9020   25.1140 C   0  0  0  0  0  0  0  0  0  0  0  0
    6.2490   11.2890   26.3110 S   0  0  0  0  0  0  0  0  0  0  0  0
    6.3050   13.0710   26.4670 C   0  0  0  0  0  0  0  0  0  0  0  0
    6.6620   13.7090   25.1340 C   0  0  0  0  0  0  0  0  0  0  0  0
 11  9  1  0
 10  9  2  0
  8  9  1  6
  8  6  1  0
  6  5  1  0
  5  4  1  0
  4  3  1  0
  3  2  1  0
  2  1  2  0
 12  2  1  6
 12 21  1  0
 21 20  1  0
 20 19  1  0
 19 18  1  0
 18 17  1  0
 17 16  2  0
 16 15  1  0
 15 14  2  0
 14 13  1  0
 18 13  2  0
 13 12  1  0
  7  3  1  0
  8  7  1  0
M  END
$$$$
