A71EV2A-x4418_A_201_1_A71EV2A-x0911+A+147+1__LIG
     RDKit          3D

 19 20  0  0  0  0  0  0  0  0999 V2000
   11.2280   14.6100   18.3660 O   0  0  0  0  0  0  0  0  0  0  0  0
   10.9160   15.3200   19.3440 C   0  0  0  0  0  0  0  0  0  0  0  0
   10.3950   16.5220   19.2070 N   0  0  0  0  0  0  0  0  0  0  0  0
   11.1100   14.8300   20.7730 C   0  0  1  0  0  0  0  0  0  0  0  0
   11.9230   15.7230   21.7470 C   0  0  0  0  0  0  0  0  0  0  0  0
   11.6100   15.1440   23.1120 C   0  0  0  0  0  0  0  0  0  0  0  0
    9.7940   14.6510   21.5420 C   0  0  0  0  0  0  0  0  0  0  0  0
   10.2390   14.6120   22.9430 N   0  0  0  0  0  0  0  0  0  0  0  0
    9.5900   13.9740   23.9550 C   0  0  0  0  0  0  0  0  0  0  0  0
   10.0790   13.8460   25.0810 O   0  0  0  0  0  0  0  0  0  0  0  0
    8.3340   13.5110   23.6680 N   0  0  0  0  0  0  0  0  0  0  0  0
    7.6320   12.6210   24.5310 C   0  0  0  0  0  0  0  0  0  0  0  0
    7.9230   11.2440   24.4300 C   0  0  0  0  0  0  0  0  0  0  0  0
    8.8620   10.8880   23.5120 O   0  0  0  0  0  0  0  0  0  0  0  0
    9.1470    9.4820   23.3550 C   0  0  0  0  0  0  0  0  0  0  0  0
    6.6650   13.0410   25.4270 C   0  0  0  0  0  0  0  0  0  0  0  0
    6.0150   12.0720   26.1830 C   0  0  0  0  0  0  0  0  0  0  0  0
    6.3550   10.7490   26.0100 C   0  0  0  0  0  0  0  0  0  0  0  0
    7.2970   10.3230   25.1530 N   0  0  0  0  0  0  0  0  0  0  0  0
 15 14  1  0
 14 13  1  0
 13 19  2  0
 19 18  1  0
 18 17  2  0
 17 16  1  0
 16 12  2  0
 13 12  1  0
 12 11  1  0
 11  9  1  0
 10  9  2  0
  9  8  1  0
  8  6  1  0
  6  5  1  0
  5  4  1  0
  4  2  1  6
  3  2  1  0
  2  1  2  0
  7  4  1  0
  8  7  1  0
M  END
$$$$
