A71EV2A-x4309_A_201_1_A71EV2A-x0911+A+147+1__LIG
     RDKit          3D

 25 26  0  0  0  0  0  0  0  0999 V2000
   10.4830   16.6390   19.2290 O   0  0  0  0  0  0  0  0  0  0  0  0
   10.8380   15.4760   19.4550 C   0  0  0  0  0  0  0  0  0  0  0  0
   11.2050   14.6330   18.5010 N   0  0  0  0  0  0  0  0  0  0  0  0
   10.8140   14.9080   20.8630 C   0  0  1  0  0  0  0  0  0  0  0  0
   11.8750   15.5650   21.7600 C   0  0  0  0  0  0  0  0  0  0  0  0
   11.8160   14.9450   23.1560 C   0  0  0  0  0  0  0  0  0  0  0  0
   10.4090   15.0730   23.7450 C   0  0  0  0  0  0  0  0  0  0  0  0
    9.4280   15.1220   21.4810 C   0  0  0  0  0  0  0  0  0  0  0  0
    9.3770   14.5550   22.8300 N   0  0  0  0  0  0  0  0  0  0  0  0
    8.3950   13.6480   23.1340 C   0  0  0  0  0  0  0  0  0  0  0  0
    7.6150   13.2280   22.2890 O   0  0  0  0  0  0  0  0  0  0  0  0
    8.3020   13.2690   24.4380 N   0  0  0  0  0  0  0  0  0  0  0  0
    7.3940   12.2860   24.8980 C   0  0  0  0  0  0  0  0  0  0  0  0
    7.6780   10.9420   24.5660 C   0  0  0  0  0  0  0  0  0  0  0  0
    8.7890   10.7680   23.7850 O   0  0  0  0  0  0  0  0  0  0  0  0
    9.1030    9.4400   23.3500 C   0  0  0  0  0  0  0  0  0  0  0  0
    6.8750    9.9140   25.0490 C   0  0  0  0  0  0  0  0  0  0  0  0
    5.7950   10.2030   25.8590 C   0  0  0  0  0  0  0  0  0  0  0  0
    6.2890   12.5670   25.6990 C   0  0  0  0  0  0  0  0  0  0  0  0
    5.4990   11.5220   26.1630 C   0  0  0  0  0  0  0  0  0  0  0  0
    4.0380   11.8890   27.0810 S   0  0  0  0  0  0  0  0  0  0  0  0
    3.1330   10.7700   26.9710 O   0  0  0  0  0  0  0  0  0  0  0  0
    3.5590   13.1840   26.6830 O   0  0  0  0  0  0  0  0  0  0  0  0
    4.6130   11.9880   28.7610 C   0  0  0  0  0  0  0  0  0  0  0  0
    3.5410   12.4320   29.7320 C   0  0  0  0  0  0  0  0  0  0  0  0
 25 24  1  0
 24 21  1  0
 22 21  2  0
 23 21  2  0
 21 20  1  0
 20 18  2  0
 18 17  1  0
 17 14  2  0
 15 14  1  0
 16 15  1  0
 14 13  1  0
 13 12  1  0
 12 10  1  0
 11 10  2  0
 10  9  1  0
  9  7  1  0
  7  6  1  0
  6  5  1  0
  5  4  1  0
  4  2  1  6
  3  2  1  0
  2  1  2  0
  8  4  1  0
  9  8  1  0
 19 13  2  0
 20 19  1  0
M  END
$$$$
