ver_1.2
     RDKit          3D

 34 38  0  0  0  0  0  0  0  0999 V2000
    1.3288   -2.6067   -0.6547 O   0  0  0  0  0  0  0  0  0  0  0  0
    2.2048   -1.7664   -0.2192 C   0  0  0  0  0  0  0  0  0  0  0  0
    1.6907   -0.7089    0.5578 N   0  0  0  0  0  0  0  0  0  0  0  0
    0.2689   -0.6381    0.8127 C   0  0  0  0  0  0  0  0  0  0  0  0
   -0.3001   -1.2550    1.9053 C   0  0  0  0  0  0  0  0  0  0  0  0
   -1.6416   -1.2280    2.1922 C   0  0  0  0  0  0  0  0  0  0  0  0
   -2.4681   -0.5272    1.3092 C   0  0  0  0  0  0  0  0  0  0  0  0
   -1.9349    0.1025    0.2054 C   0  0  0  0  0  0  0  0  0  0  0  0
   -0.5593    0.0539   -0.0555 C   0  0  0  0  0  0  0  0  0  0  0  0
   -3.0418    0.7455   -0.5329 C   0  0  0  0  0  0  0  0  0  0  0  0
   -2.9767    1.4186   -1.5939 O   0  0  0  0  0  0  0  0  0  0  0  0
   -4.2500    0.4815    0.1650 N   0  0  0  0  0  0  0  0  0  0  0  0
   -5.5800    0.8808   -0.1418 C   0  0  0  0  0  0  0  0  0  0  0  0
   -6.3229    0.0130   -0.9365 C   0  0  0  0  0  0  0  0  0  0  0  0
   -7.6379    0.3263   -1.2903 C   0  0  0  0  0  0  0  0  0  0  0  0
   -8.1794    1.5259   -0.8272 C   0  0  0  0  0  0  0  0  0  0  0  0
   -9.4586    1.7981   -1.1955 F   0  0  0  0  0  0  0  0  0  0  0  0
   -7.4539    2.3987   -0.0357 C   0  0  0  0  0  0  0  0  0  0  0  0
   -6.1353    2.0686    0.3105 C   0  0  0  0  0  0  0  0  0  0  0  0
   -3.9333   -0.3095    1.3170 C   0  0  0  0  0  0  0  0  0  0  0  0
   -4.7412   -0.7375    2.1712 O   0  0  0  0  0  0  0  0  0  0  0  0
    3.5836   -1.9922   -0.5620 C   0  0  0  0  0  0  0  0  0  0  0  0
    3.9824   -3.2716   -0.9519 C   0  0  0  0  0  0  0  0  0  0  0  0
    5.2825   -3.5444   -1.2905 C   0  0  0  0  0  0  0  0  0  0  0  0
    6.1951   -2.5124   -1.2354 C   0  0  0  0  0  0  0  0  0  0  0  0
    5.8120   -1.2471   -0.8526 C   0  0  0  0  0  0  0  0  0  0  0  0
    6.5211   -0.0973   -0.7286 N   0  0  0  0  0  0  0  0  0  0  0  0
    5.6934    0.8903   -0.3193 C   0  0  0  0  0  0  0  0  0  0  0  0
    6.1610    2.2805   -0.0894 C   0  0  0  0  0  0  0  0  0  0  0  0
    5.3281    2.8436    0.8574 F   0  0  0  0  0  0  0  0  0  0  0  0
    7.4808    2.2375    0.3695 F   0  0  0  0  0  0  0  0  0  0  0  0
    6.1102    2.9914   -1.2828 F   0  0  0  0  0  0  0  0  0  0  0  0
    4.4807    0.3444   -0.1941 N   0  0  0  0  0  0  0  0  0  0  0  0
    4.4908   -0.9590   -0.5057 C   0  0  0  0  0  0  0  0  0  0  0  0
  1  2  2  0
  2  3  1  0
  3  4  1  0
  4  5  2  0
  5  6  1  0
  6  7  2  0
  7  8  1  0
  8  9  2  0
  8 10  1  0
 10 11  2  0
 10 12  1  0
 12 13  1  0
 13 14  2  0
 14 15  1  0
 15 16  2  0
 16 17  1  0
 16 18  1  0
 18 19  2  0
 12 20  1  0
 20 21  2  0
  2 22  1  0
 22 23  2  0
 23 24  1  0
 24 25  2  0
 25 26  1  0
 26 27  1  0
 27 28  2  0
 28 29  1  0
 29 30  1  0
 29 31  1  0
 29 32  1  0
 28 33  1  0
 33 34  1  0
  9  4  1  0
 19 13  1  0
 34 22  1  0
 20  7  1  0
 34 26  2  0
M  END
>  <ref_url>  (1) 
https://hippo.winokan.com

>  <submitter_name>  (1) 
Max Winokan

>  <submitter_email>  (1) 
max.winokan@diamond.ac.uk

>  <submitter_institution>  (1) 
DLS

>  <generation_date>  (1) 
2025-12-10

>  <method>  (1) 
openbind_xx01zvns2b_c2_elabs_scored_top80percent_despaghettified_products

>  <exports>  (1) 
exports

>  <gnina_score>  (1) 
gnina_score

>  <gnina_score_min>  (1) 
gnina_score_min

>  <smina_score_min>  (1) 
smina_score_min

>  <rmsd(smina/fragmenstein)>  (1) 
rmsd(smina/fragmenstein)

>  <HIPPO Pose ID>  (1) 
HIPPO Pose ID

>  <HIPPO Compound ID>  (1) 
HIPPO Compound ID

>  <smiles>  (1) 
smiles

>  <ref_pdb>  (1) 
protein reference

>  <ref_mols>  (1) 
fragment inspirations

>  <alias>  (1) 
alias

>  <distance_score>  (1) 
distance_score

>  <energy_score>  (1) 
energy_score

>  <inspiration_score>  (1) 
inspiration_score

>  <subsites>  (1) 
subsites

>  <tags>  (1) 
tags

$$$$
P103154
     RDKit          3D

 34 38  0  0  0  0  0  0  0  0999 V2000
   -7.0280    6.2207  -14.1880 O   0  0  0  0  0  0  0  0  0  0  0  0
   -7.6201    5.2165  -14.2832 C   0  0  0  0  0  0  0  0  0  0  0  0
   -8.1835    4.2781  -13.1916 N   0  0  0  0  0  0  0  0  0  0  0  0
   -8.0598    4.3261  -11.8103 C   0  0  0  0  0  0  0  0  0  0  0  0
   -7.3058    5.4060  -11.2979 C   0  0  0  0  0  0  0  0  0  0  0  0
   -7.0212    5.5147   -9.9568 C   0  0  0  0  0  0  0  0  0  0  0  0
   -7.5491    4.5393   -9.1565 C   0  0  0  0  0  0  0  0  0  0  0  0
   -8.3555    3.5164   -9.6059 C   0  0  0  0  0  0  0  0  0  0  0  0
   -8.6052    3.3561  -10.9594 C   0  0  0  0  0  0  0  0  0  0  0  0
   -8.8956    2.8682   -8.4042 C   0  0  0  0  0  0  0  0  0  0  0  0
   -9.7295    1.9864   -8.4809 O   0  0  0  0  0  0  0  0  0  0  0  0
   -8.3452    3.5371   -7.3176 N   0  0  0  0  0  0  0  0  0  0  0  0
   -8.7896    3.5149   -5.9801 C   0  0  0  0  0  0  0  0  0  0  0  0
   -8.0327    4.1392   -4.9581 C   0  0  0  0  0  0  0  0  0  0  0  0
   -8.5514    4.3671   -3.6932 C   0  0  0  0  0  0  0  0  0  0  0  0
   -9.8379    3.9576   -3.4455 C   0  0  0  0  0  0  0  0  0  0  0  0
  -10.3749    4.2163   -2.2448 F   0  0  0  0  0  0  0  0  0  0  0  0
  -10.5753    3.2800   -4.4193 C   0  0  0  0  0  0  0  0  0  0  0  0
  -10.0518    3.0309   -5.6762 C   0  0  0  0  0  0  0  0  0  0  0  0
   -7.4565    4.4903   -7.7282 C   0  0  0  0  0  0  0  0  0  0  0  0
   -6.7271    5.2719   -7.1380 O   0  0  0  0  0  0  0  0  0  0  0  0
   -7.7731    4.7095  -15.6520 C   0  0  0  0  0  0  0  0  0  0  0  0
   -8.9335    4.1383  -16.1657 C   0  0  0  0  0  0  0  0  0  0  0  0
   -9.0202    3.8412  -17.5269 C   0  0  0  0  0  0  0  0  0  0  0  0
   -7.9449    4.0873  -18.3965 C   0  0  0  0  0  0  0  0  0  0  0  0
   -6.7625    4.6327  -17.8797 C   0  0  0  0  0  0  0  0  0  0  0  0
   -5.5687    4.9476  -18.4828 N   0  0  0  0  0  0  0  0  0  0  0  0
   -4.7711    5.3832  -17.5198 C   0  0  0  0  0  0  0  0  0  0  0  0
   -3.3375    5.7740  -17.5750 C   0  0  0  0  0  0  0  0  0  0  0  0
   -2.7253    5.5585  -16.3750 F   0  0  0  0  0  0  0  0  0  0  0  0
   -3.1824    7.0973  -17.8414 F   0  0  0  0  0  0  0  0  0  0  0  0
   -2.6274    5.0837  -18.4977 F   0  0  0  0  0  0  0  0  0  0  0  0
   -5.4507    5.4327  -16.3325 N   0  0  0  0  0  0  0  0  0  0  0  0
   -6.7081    4.9234  -16.5314 C   0  0  0  0  0  0  0  0  0  0  0  0
  1  2  2  0
  2  3  1  0
  3  4  1  0
  4  5  2  0
  5  6  1  0
  6  7  2  0
  7  8  1  0
  8  9  2  0
  8 10  1  0
 10 11  2  0
 10 12  1  0
 12 13  1  0
 13 14  2  0
 14 15  1  0
 15 16  2  0
 16 17  1  0
 16 18  1  0
 18 19  2  0
 12 20  1  0
 20 21  2  0
  2 22  1  0
 22 23  2  0
 23 24  1  0
 24 25  2  0
 25 26  1  0
 26 27  1  0
 27 28  2  0
 28 29  1  0
 29 30  1  0
 29 31  1  0
 29 32  1  0
 28 33  1  0
 33 34  1  0
  9  4  1  0
 19 13  1  0
 34 22  1  0
 20  7  1  0
 34 26  2  0
M  END
>  <name>  (1) 
P103154

>  <alias>  (1) 
None

>  <smina_score_min>  (1) 
-9.814

>  <exports>  (1) 
['/opt/xchem-fragalysis-2/maxwin/BulkDock/OUTPUTS/openbind_xx01zvns2b_c2_elabs_1LOUTNY.sdf', '/opt/xchem-fragalysis-2/maxwin/BulkDock/OUTPUTS/openbind_xx01zvns2b_c2_elabs_1LSYIIV.sdf', '/opt/xchem-fragalysis-2/maxwin/openbind-hippo/xx01zvns2b/cycle_02/gnina/openbind_xx01zvns2b_c2_elabs_scored_6.2plus_products.sdf']

>  <tags>  (1) 
syndirella_placed,openbind_xx01zvns2b_c2_elabs,openbind_xx01zvns2b_c2_elabs_scored_6.2plus,syndirella_product,openbind_xx01zvns2b_c2_elabs_scored,openbind_xx01zvns2b_c2_elabs_scored_top80percent,BulkDock Fragalysis export,openbind_xx01zvns2b_c2_elabs_scored_top80percent_despaghettified

>  <subsites>  (1) 
1 - Z4590/B/203/1

>  <smiles>  (1) 
O=C(Nc1ccc2c(c1)C(=O)N(c1ccc(F)cc1)C2=O)c1cccc2nc(C(F)(F)F)[nH]c12

>  <HIPPO Pose ID>  (1) 
103154

>  <energy_score>  (1) 
-45.47472

>  <inchikey>  (1) 
UPGLSFGQDIREBY-UHFFFAOYSA-N

>  <gnina_score_min>  (1) 
6.215

>  <gnina_score>  (1) 
5.938

>  <ref_mols>  (1) 
Z3501a

>  <HIPPO Compound ID>  (1) 
162249

>  <distance_score>  (1) 
0.852219

>  <rmsd(smina/fragmenstein)>  (1) 
0.846

>  <ref_pdb>  (1) 
Z3501a

>  <inspiration_score>  (1) 
None

$$$$
P103157
     RDKit          3D

 35 39  0  0  0  0  0  0  0  0999 V2000
   -9.8970    4.5994   -2.1133 C   0  0  0  0  0  0  0  0  0  0  0  0
   -8.9143    4.4018   -3.1558 N   0  0  0  0  0  0  0  0  0  0  0  0
   -7.6263    4.7858   -2.7958 C   0  0  0  0  0  0  0  0  0  0  0  0
   -7.3349    5.2495   -1.6923 O   0  0  0  0  0  0  0  0  0  0  0  0
   -6.5522    4.5344   -3.8046 C   0  0  0  0  0  0  0  0  0  0  0  0
   -7.0764    4.6869   -5.2090 C   0  0  0  0  0  0  0  0  0  0  0  0
   -8.2650    3.7463   -5.4929 C   0  0  2  0  0  0  0  0  0  0  0  0
   -8.7593    3.9496   -6.8655 N   0  0  0  0  0  0  0  0  0  0  0  0
   -8.8880    2.9231   -7.9266 C   0  0  0  0  0  0  0  0  0  0  0  0
   -8.6675    3.7366   -9.1794 C   0  0  0  0  0  0  0  0  0  0  0  0
   -8.5121    3.3963  -10.5245 C   0  0  0  0  0  0  0  0  0  0  0  0
   -8.2298    4.4354  -11.4372 C   0  0  0  0  0  0  0  0  0  0  0  0
   -8.0579    4.2270  -12.8067 N   0  0  0  0  0  0  0  0  0  0  0  0
   -7.4678    5.1561  -13.9011 C   0  0  0  0  0  0  0  0  0  0  0  0
   -6.9638    6.2095  -13.8115 O   0  0  0  0  0  0  0  0  0  0  0  0
   -7.6204    4.6563  -15.2840 C   0  0  0  0  0  0  0  0  0  0  0  0
   -8.8155    4.1373  -15.7900 C   0  0  0  0  0  0  0  0  0  0  0  0
   -8.9743    3.9158  -17.1634 C   0  0  0  0  0  0  0  0  0  0  0  0
   -7.9390    4.1945  -18.0672 C   0  0  0  0  0  0  0  0  0  0  0  0
   -6.7306    4.6983  -17.5702 C   0  0  0  0  0  0  0  0  0  0  0  0
   -5.5755    5.0457  -18.2244 N   0  0  0  0  0  0  0  0  0  0  0  0
   -4.7270    5.4369  -17.2879 C   0  0  0  0  0  0  0  0  0  0  0  0
   -3.2992    5.8308  -17.4190 C   0  0  0  0  0  0  0  0  0  0  0  0
   -3.1598    7.1458  -17.7296 F   0  0  0  0  0  0  0  0  0  0  0  0
   -2.6312    5.6463  -16.2444 F   0  0  0  0  0  0  0  0  0  0  0  0
   -2.6319    5.1160  -18.3562 F   0  0  0  0  0  0  0  0  0  0  0  0
   -5.3400    5.4328  -16.0606 N   0  0  0  0  0  0  0  0  0  0  0  0
   -6.6025    4.9174  -16.2085 C   0  0  0  0  0  0  0  0  0  0  0  0
   -8.1271    5.7725  -10.9984 C   0  0  0  0  0  0  0  0  0  0  0  0
   -8.3437    6.1150   -9.6784 C   0  0  0  0  0  0  0  0  0  0  0  0
   -8.6181    5.0829   -8.8159 C   0  0  0  0  0  0  0  0  0  0  0  0
   -8.8243    5.2190   -7.3858 C   0  0  0  0  0  0  0  0  0  0  0  0
   -8.9328    6.2817   -6.8022 O   0  0  0  0  0  0  0  0  0  0  0  0
   -9.3528    3.9740   -4.4274 C   0  0  0  0  0  0  0  0  0  0  0  0
  -10.5381    3.7454   -4.6725 O   0  0  0  0  0  0  0  0  0  0  0  0
  1  2  1  0
  2  3  1  0
  3  4  2  0
  3  5  1  0
  5  6  1  0
  6  7  1  0
  7  8  1  6
  8  9  1  0
  9 10  1  0
 10 11  2  0
 11 12  1  0
 12 13  1  0
 13 14  1  0
 14 15  2  0
 14 16  1  0
 16 17  2  0
 17 18  1  0
 18 19  2  0
 19 20  1  0
 20 21  1  0
 21 22  2  0
 22 23  1  0
 23 24  1  0
 23 25  1  0
 23 26  1  0
 22 27  1  0
 27 28  1  0
 12 29  2  0
 29 30  1  0
 30 31  2  0
 31 32  1  0
 32 33  2  0
  7 34  1  0
 34 35  2  0
 34  2  1  0
 32  8  1  0
 31 10  1  0
 28 16  1  0
 28 20  2  0
M  END
>  <name>  (2) 
P103157

>  <alias>  (2) 
None

>  <smina_score_min>  (2) 
-9.38

>  <exports>  (2) 
['/opt/xchem-fragalysis-2/maxwin/BulkDock/OUTPUTS/openbind_xx01zvns2b_c2_elabs_1LOUTNY.sdf', '/opt/xchem-fragalysis-2/maxwin/BulkDock/OUTPUTS/openbind_xx01zvns2b_c2_elabs_1LSYIIV.sdf', '/opt/xchem-fragalysis-2/maxwin/openbind-hippo/xx01zvns2b/cycle_02/gnina/openbind_xx01zvns2b_c2_elabs_scored_6.2plus_products.sdf']

>  <tags>  (2) 
syndirella_placed,openbind_xx01zvns2b_c2_elabs,openbind_xx01zvns2b_c2_elabs_scored_6.2plus,syndirella_product,openbind_xx01zvns2b_c2_elabs_scored,openbind_xx01zvns2b_c2_elabs_scored_top80percent,BulkDock Fragalysis export,openbind_xx01zvns2b_c2_elabs_scored_top80percent_despaghettified

>  <subsites>  (2) 
1 - Z4590/B/203/1

>  <smiles>  (2) 
CN1C(=O)CC[C@H](N2Cc3cc(NC(=O)c4cccc5nc(C(F)(F)F)[nH]c45)ccc3C2=O)C1=O

>  <HIPPO Pose ID>  (2) 
103157

>  <energy_score>  (2) 
-29.403013

>  <inchikey>  (2) 
SLXQHJXTDXZXAM-INIZCTEOSA-N

>  <gnina_score_min>  (2) 
6.212

>  <gnina_score>  (2) 
6.153

>  <ref_mols>  (2) 
Z3501a

>  <HIPPO Compound ID>  (2) 
162253

>  <distance_score>  (2) 
0.749125

>  <rmsd(smina/fragmenstein)>  (2) 
0.549

>  <ref_pdb>  (2) 
Z3501a

>  <inspiration_score>  (2) 
None

$$$$
P103245
     RDKit          3D

 33 35  0  0  0  0  0  0  0  0999 V2000
   -5.4657    0.9506   -9.8961 C   0  0  0  0  0  0  0  0  0  0  0  0
   -6.3124    2.0647  -10.1520 N   0  0  0  0  0  0  0  0  0  0  0  0
   -7.5695    2.5677   -9.3971 C   0  0  0  0  0  0  0  0  0  0  0  0
   -8.1468    2.1029   -8.4976 O   0  0  0  0  0  0  0  0  0  0  0  0
   -8.0507    3.7916  -10.0413 C   0  0  0  0  0  0  0  0  0  0  0  0
   -8.0520    5.0070   -9.3705 C   0  0  0  0  0  0  0  0  0  0  0  0
   -7.8722    5.0753   -8.0447 F   0  0  0  0  0  0  0  0  0  0  0  0
   -8.1303    6.1964  -10.0945 C   0  0  0  0  0  0  0  0  0  0  0  0
   -8.1543    6.1590  -11.4923 C   0  0  0  0  0  0  0  0  0  0  0  0
   -8.2002    4.9278  -12.1436 C   0  0  0  0  0  0  0  0  0  0  0  0
   -8.0734    4.7982  -13.5147 N   0  0  0  0  0  0  0  0  0  0  0  0
   -7.4628    5.7487  -14.5543 C   0  0  0  0  0  0  0  0  0  0  0  0
   -7.0380    6.8259  -14.4346 O   0  0  0  0  0  0  0  0  0  0  0  0
   -7.5224    5.1367  -15.9020 C   0  0  0  0  0  0  0  0  0  0  0  0
   -8.7516    4.6790  -16.3693 C   0  0  0  0  0  0  0  0  0  0  0  0
   -8.8774    4.3372  -17.7063 C   0  0  0  0  0  0  0  0  0  0  0  0
  -10.4364    3.9861  -18.3105 Cl  0  0  0  0  0  0  0  0  0  0  0  0
   -7.7836    4.3929  -18.5638 C   0  0  0  0  0  0  0  0  0  0  0  0
   -6.5394    4.7944  -18.0750 C   0  0  0  0  0  0  0  0  0  0  0  0
   -5.4643    4.8228  -18.9560 N   0  0  0  0  0  0  0  0  0  0  0  0
   -4.0013    5.1990  -18.7260 C   0  0  0  0  0  0  0  0  0  0  0  0
   -3.4383    5.4732  -17.7467 O   0  0  0  0  0  0  0  0  0  0  0  0
   -3.4346    5.1609  -19.9614 O   0  0  0  0  0  0  0  0  0  0  0  0
   -2.0505    5.5312  -20.0276 C   0  0  0  0  0  0  0  0  0  0  0  0
   -1.9513    7.0120  -20.3012 C   0  0  0  0  0  0  0  0  0  0  0  0
   -1.8740    7.9295  -19.2435 C   0  0  0  0  0  0  0  0  0  0  0  0
   -1.8216    9.3009  -19.4964 C   0  0  0  0  0  0  0  0  0  0  0  0
   -1.8473    9.7689  -20.8087 C   0  0  0  0  0  0  0  0  0  0  0  0
   -1.9316    8.8666  -21.8680 C   0  0  0  0  0  0  0  0  0  0  0  0
   -1.9892    7.4947  -21.6161 C   0  0  0  0  0  0  0  0  0  0  0  0
   -6.4067    5.1782  -16.7409 C   0  0  0  0  0  0  0  0  0  0  0  0
   -8.2283    3.7501  -11.4142 C   0  0  0  0  0  0  0  0  0  0  0  0
   -8.1939    2.5845  -12.0816 F   0  0  0  0  0  0  0  0  0  0  0  0
  1  2  1  0
  2  3  1  0
  3  4  2  0
  3  5  1  0
  5  6  2  0
  6  7  1  0
  6  8  1  0
  8  9  2  0
  9 10  1  0
 10 11  1  0
 11 12  1  0
 12 13  2  0
 12 14  1  0
 14 15  2  0
 15 16  1  0
 16 17  1  0
 16 18  2  0
 18 19  1  0
 19 20  1  0
 20 21  1  0
 21 22  2  0
 21 23  1  0
 23 24  1  0
 24 25  1  0
 25 26  2  0
 26 27  1  0
 27 28  2  0
 28 29  1  0
 29 30  2  0
 19 31  2  0
 10 32  2  0
 32 33  1  0
 32  5  1  0
 31 14  1  0
 30 25  1  0
M  END
>  <name>  (3) 
P103245

>  <alias>  (3) 
None

>  <smina_score_min>  (3) 
-7.516

>  <exports>  (3) 
['/opt/xchem-fragalysis-2/maxwin/BulkDock/OUTPUTS/openbind_xx01zvns2b_c2_elabs_1LOUTNY.sdf', '/opt/xchem-fragalysis-2/maxwin/BulkDock/OUTPUTS/openbind_xx01zvns2b_c2_elabs_1LSYIIV.sdf', '/opt/xchem-fragalysis-2/maxwin/openbind-hippo/xx01zvns2b/cycle_02/gnina/openbind_xx01zvns2b_c2_elabs_scored_6.2plus_products.sdf']

>  <tags>  (3) 
syndirella_placed,openbind_xx01zvns2b_c2_elabs,openbind_xx01zvns2b_c2_elabs_scored_6.2plus,syndirella_product,openbind_xx01zvns2b_c2_elabs_scored,openbind_xx01zvns2b_c2_elabs_scored_top80percent,BulkDock Fragalysis export,openbind_xx01zvns2b_c2_elabs_scored_top80percent_despaghettified

>  <subsites>  (3) 
1 - Z4590/B/203/1

>  <smiles>  (3) 
CNC(=O)c1c(F)ccc(NC(=O)c2cc(Cl)cc(NC(=O)OCc3ccccc3)c2)c1F

>  <HIPPO Pose ID>  (3) 
103245

>  <energy_score>  (3) 
-13.111217

>  <inchikey>  (3) 
SXWNYSQCZAKEQT-UHFFFAOYSA-N

>  <gnina_score_min>  (3) 
6.27

>  <gnina_score>  (3) 
6.233

>  <ref_mols>  (3) 
Z2992a

>  <HIPPO Compound ID>  (3) 
162830

>  <distance_score>  (3) 
0.77295

>  <rmsd(smina/fragmenstein)>  (3) 
1.29

>  <ref_pdb>  (3) 
Z2992a

>  <inspiration_score>  (3) 
None

$$$$
P103286
     RDKit          3D

 34 37  0  0  0  0  0  0  0  0999 V2000
   -7.6259    7.5328  -12.3206 C   0  0  0  0  0  0  0  0  0  0  0  0
   -7.9071    6.2935  -11.5215 C   0  0  0  0  0  0  0  0  0  0  0  0
   -8.1663    6.4972  -10.1597 C   0  0  0  0  0  0  0  0  0  0  0  0
   -8.5521    5.4481   -9.3351 C   0  0  0  0  0  0  0  0  0  0  0  0
   -8.6321    4.1402   -9.8118 C   0  0  0  0  0  0  0  0  0  0  0  0
   -9.1640    3.0103   -8.9505 C   0  0  0  0  0  0  0  0  0  0  0  0
   -8.4627    2.6709   -7.7049 N   0  0  0  0  0  0  0  0  0  0  0  0
   -9.2788    1.6930   -6.9548 C   0  0  0  0  0  0  0  0  0  0  0  0
  -10.2091    2.5100   -6.0597 C   0  0  0  0  0  0  0  0  0  0  0  0
   -9.5580    3.8808   -5.9637 C   0  0  0  0  0  0  0  0  0  0  0  0
   -8.2393    3.7030   -6.6914 C   0  0  0  0  0  0  0  0  0  0  0  0
   -8.3707    3.9327  -11.1802 C   0  0  0  0  0  0  0  0  0  0  0  0
   -7.9985    4.9886  -12.0380 C   0  0  0  0  0  0  0  0  0  0  0  0
   -7.8278    4.6583  -13.3904 N   0  0  0  0  0  0  0  0  0  0  0  0
   -7.0701    5.4000  -14.5193 C   0  0  0  0  0  0  0  0  0  0  0  0
   -6.4057    6.3613  -14.4814 O   0  0  0  0  0  0  0  0  0  0  0  0
   -7.3276    4.8298  -15.8664 C   0  0  0  0  0  0  0  0  0  0  0  0
   -8.6241    4.5077  -16.2694 C   0  0  0  0  0  0  0  0  0  0  0  0
   -8.8718    4.2860  -17.6222 C   0  0  0  0  0  0  0  0  0  0  0  0
  -10.4837    4.0522  -18.1594 Cl  0  0  0  0  0  0  0  0  0  0  0  0
   -7.8483    4.3629  -18.5647 C   0  0  0  0  0  0  0  0  0  0  0  0
   -6.5522    4.6631  -18.1550 C   0  0  0  0  0  0  0  0  0  0  0  0
   -5.5536    4.7817  -19.1140 N   0  0  0  0  0  0  0  0  0  0  0  0
   -4.0488    5.0073  -18.9595 C   0  0  0  0  0  0  0  0  0  0  0  0
   -3.3875    5.0542  -18.0044 O   0  0  0  0  0  0  0  0  0  0  0  0
   -3.5784    5.1386  -20.2290 O   0  0  0  0  0  0  0  0  0  0  0  0
   -2.1799    5.4386  -20.3457 C   0  0  0  0  0  0  0  0  0  0  0  0
   -2.0164    6.9352  -20.4635 C   0  0  0  0  0  0  0  0  0  0  0  0
   -1.9188    7.7373  -19.3169 C   0  0  0  0  0  0  0  0  0  0  0  0
   -1.8103    9.1246  -19.4280 C   0  0  0  0  0  0  0  0  0  0  0  0
   -1.7985    9.7243  -20.6858 C   0  0  0  0  0  0  0  0  0  0  0  0
   -1.9012    8.9380  -21.8322 C   0  0  0  0  0  0  0  0  0  0  0  0
   -2.0153    7.5510  -21.7220 C   0  0  0  0  0  0  0  0  0  0  0  0
   -6.2906    4.8908  -16.8065 C   0  0  0  0  0  0  0  0  0  0  0  0
  1  2  1  0
  2  3  2  0
  3  4  1  0
  4  5  2  0
  5  6  1  0
  6  7  1  0
  7  8  1  0
  8  9  1  0
  9 10  1  0
 10 11  1  0
  5 12  1  0
 12 13  2  0
 13 14  1  0
 14 15  1  0
 15 16  2  0
 15 17  1  0
 17 18  2  0
 18 19  1  0
 19 20  1  0
 19 21  2  0
 21 22  1  0
 22 23  1  0
 23 24  1  0
 24 25  2  0
 24 26  1  0
 26 27  1  0
 27 28  1  0
 28 29  2  0
 29 30  1  0
 30 31  2  0
 31 32  1  0
 32 33  2  0
 22 34  2  0
 13  2  1  0
 34 17  1  0
 11  7  1  0
 33 28  1  0
M  END
>  <name>  (4) 
P103286

>  <alias>  (4) 
None

>  <smina_score_min>  (4) 
-7.701

>  <exports>  (4) 
['/opt/xchem-fragalysis-2/maxwin/BulkDock/OUTPUTS/openbind_xx01zvns2b_c2_elabs_1LOUTNY.sdf', '/opt/xchem-fragalysis-2/maxwin/BulkDock/OUTPUTS/openbind_xx01zvns2b_c2_elabs_1LSYIIV.sdf', '/opt/xchem-fragalysis-2/maxwin/openbind-hippo/xx01zvns2b/cycle_02/gnina/openbind_xx01zvns2b_c2_elabs_scored_6.2plus_products.sdf']

>  <tags>  (4) 
syndirella_placed,openbind_xx01zvns2b_c2_elabs,openbind_xx01zvns2b_c2_elabs_scored_6.2plus,syndirella_product,openbind_xx01zvns2b_c2_elabs_scored,openbind_xx01zvns2b_c2_elabs_scored_top80percent,BulkDock Fragalysis export,openbind_xx01zvns2b_c2_elabs_scored_top80percent_despaghettified

>  <subsites>  (4) 
1 - Z4590/B/203/1

>  <smiles>  (4) 
Cc1ccc(CN2CCCC2)cc1NC(=O)c1cc(Cl)cc(NC(=O)OCc2ccccc2)c1

>  <HIPPO Pose ID>  (4) 
103286

>  <energy_score>  (4) 
-20.813122

>  <inchikey>  (4) 
PGQKAPWNIFQQME-UHFFFAOYSA-N

>  <gnina_score_min>  (4) 
6.279

>  <gnina_score>  (4) 
6.098

>  <ref_mols>  (4) 
Z2992a

>  <HIPPO Compound ID>  (4) 
162904

>  <distance_score>  (4) 
0.472297

>  <rmsd(smina/fragmenstein)>  (4) 
0.844

>  <ref_pdb>  (4) 
Z2992a

>  <inspiration_score>  (4) 
None

$$$$
P103288
     RDKit          3D

 34 37  0  0  0  0  0  0  0  0999 V2000
   -9.7330    2.0205   -8.7831 C   0  0  0  0  0  0  0  0  0  0  0  0
   -8.5745    2.3850   -7.9967 N   0  0  0  0  0  0  0  0  0  0  0  0
   -8.9528    3.0621   -6.7687 C   0  0  0  0  0  0  0  0  0  0  0  0
   -7.4937    3.0162   -8.7546 C   0  0  1  0  0  0  0  0  0  0  0  0
   -6.6322    1.9471   -9.4617 C   0  0  0  0  0  0  0  0  0  0  0  0
   -6.4841    2.1286  -10.9625 C   0  0  0  0  0  0  0  0  0  0  0  0
   -7.6345    2.6860  -11.5910 O   0  0  0  0  0  0  0  0  0  0  0  0
   -7.8761    3.9307  -11.0659 C   0  0  0  0  0  0  0  0  0  0  0  0
   -7.9931    5.0040  -11.9445 C   0  0  0  0  0  0  0  0  0  0  0  0
   -7.8824    4.7806  -13.3084 N   0  0  0  0  0  0  0  0  0  0  0  0
   -7.4760    5.7302  -14.4459 C   0  0  0  0  0  0  0  0  0  0  0  0
   -7.2434    6.8719  -14.4303 O   0  0  0  0  0  0  0  0  0  0  0  0
   -7.4915    5.0525  -15.7602 C   0  0  0  0  0  0  0  0  0  0  0  0
   -8.7206    4.6023  -16.2399 C   0  0  0  0  0  0  0  0  0  0  0  0
   -8.8439    4.2996  -17.5886 C   0  0  0  0  0  0  0  0  0  0  0  0
  -10.3958    3.9674  -18.2300 Cl  0  0  0  0  0  0  0  0  0  0  0  0
   -7.7482    4.3840  -18.4423 C   0  0  0  0  0  0  0  0  0  0  0  0
   -6.5057    4.7774  -17.9426 C   0  0  0  0  0  0  0  0  0  0  0  0
   -5.4405    4.8463  -18.8326 N   0  0  0  0  0  0  0  0  0  0  0  0
   -3.9665    5.1673  -18.5939 C   0  0  0  0  0  0  0  0  0  0  0  0
   -3.3857    5.3516  -17.6042 O   0  0  0  0  0  0  0  0  0  0  0  0
   -3.4114    5.1714  -19.8347 O   0  0  0  0  0  0  0  0  0  0  0  0
   -2.0228    5.5200  -19.9064 C   0  0  0  0  0  0  0  0  0  0  0  0
   -1.9155    6.9939  -20.2106 C   0  0  0  0  0  0  0  0  0  0  0  0
   -1.8930    7.4468  -21.5367 C   0  0  0  0  0  0  0  0  0  0  0  0
   -1.8323    8.8131  -21.8169 C   0  0  0  0  0  0  0  0  0  0  0  0
   -1.8042    9.7391  -20.7752 C   0  0  0  0  0  0  0  0  0  0  0  0
   -1.8383    9.3006  -19.4527 C   0  0  0  0  0  0  0  0  0  0  0  0
   -1.8951    7.9350  -19.1713 C   0  0  0  0  0  0  0  0  0  0  0  0
   -6.3757    5.1287  -16.5994 C   0  0  0  0  0  0  0  0  0  0  0  0
   -8.1414    6.2970  -11.4448 C   0  0  0  0  0  0  0  0  0  0  0  0
   -8.2167    6.5105  -10.0697 C   0  0  0  0  0  0  0  0  0  0  0  0
   -8.0795    5.4383   -9.1919 C   0  0  0  0  0  0  0  0  0  0  0  0
   -7.8705    4.1423   -9.6837 C   0  0  0  0  0  0  0  0  0  0  0  0
  1  2  1  0
  2  3  1  0
  4  2  1  6
  4  5  1  0
  5  6  1  0
  6  7  1  0
  7  8  1  0
  8  9  2  0
  9 10  1  0
 10 11  1  0
 11 12  2  0
 11 13  1  0
 13 14  2  0
 14 15  1  0
 15 16  1  0
 15 17  2  0
 17 18  1  0
 18 19  1  0
 19 20  1  0
 20 21  2  0
 20 22  1  0
 22 23  1  0
 23 24  1  0
 24 25  2  0
 25 26  1  0
 26 27  2  0
 27 28  1  0
 28 29  2  0
 18 30  2  0
  9 31  1  0
 31 32  2  0
 32 33  1  0
 33 34  2  0
 34  4  1  0
 34  8  1  0
 30 13  1  0
 29 24  1  0
M  END
>  <name>  (5) 
P103288

>  <alias>  (5) 
None

>  <smina_score_min>  (5) 
-7.446

>  <exports>  (5) 
['/opt/xchem-fragalysis-2/maxwin/BulkDock/OUTPUTS/openbind_xx01zvns2b_c2_elabs_1LOUTNY.sdf', '/opt/xchem-fragalysis-2/maxwin/BulkDock/OUTPUTS/openbind_xx01zvns2b_c2_elabs_1LSYIIV.sdf', '/opt/xchem-fragalysis-2/maxwin/openbind-hippo/xx01zvns2b/cycle_02/gnina/openbind_xx01zvns2b_c2_elabs_scored_6.2plus_products.sdf']

>  <tags>  (5) 
syndirella_placed,openbind_xx01zvns2b_c2_elabs,openbind_xx01zvns2b_c2_elabs_scored_6.2plus,syndirella_product,openbind_xx01zvns2b_c2_elabs_scored,openbind_xx01zvns2b_c2_elabs_scored_top80percent,BulkDock Fragalysis export,openbind_xx01zvns2b_c2_elabs_scored_top80percent_despaghettified

>  <subsites>  (5) 
1 - Z4590/B/203/1

>  <smiles>  (5) 
CN(C)[C@H]1CCOc2c(NC(=O)c3cc(Cl)cc(NC(=O)OCc4ccccc4)c3)cccc21

>  <HIPPO Pose ID>  (5) 
103288

>  <energy_score>  (5) 
-14.479382

>  <inchikey>  (5) 
PHGJLHBSACHVAO-QHCPKHFHSA-N

>  <gnina_score_min>  (5) 
6.217

>  <gnina_score>  (5) 
6.3

>  <ref_mols>  (5) 
Z2992a

>  <HIPPO Compound ID>  (5) 
162905

>  <distance_score>  (5) 
0.659633

>  <rmsd(smina/fragmenstein)>  (5) 
1.246

>  <ref_pdb>  (5) 
Z2992a

>  <inspiration_score>  (5) 
None

$$$$
P103291
     RDKit          3D

 34 37  0  0  0  0  0  0  0  0999 V2000
   -3.3038    5.3173  -17.8681 O   0  0  0  0  0  0  0  0  0  0  0  0
   -3.9212    5.1409  -18.8368 C   0  0  0  0  0  0  0  0  0  0  0  0
   -5.4222    4.9308  -19.0310 N   0  0  0  0  0  0  0  0  0  0  0  0
   -6.4443    4.8024  -18.0984 C   0  0  0  0  0  0  0  0  0  0  0  0
   -7.7085    4.4126  -18.5384 C   0  0  0  0  0  0  0  0  0  0  0  0
   -8.7607    4.3272  -17.6307 C   0  0  0  0  0  0  0  0  0  0  0  0
  -10.3413    3.9822  -18.1983 Cl  0  0  0  0  0  0  0  0  0  0  0  0
   -8.5715    4.6313  -16.2868 C   0  0  0  0  0  0  0  0  0  0  0  0
   -7.3100    5.0523  -15.8584 C   0  0  0  0  0  0  0  0  0  0  0  0
   -7.1525    5.6677  -14.5151 C   0  0  0  0  0  0  0  0  0  0  0  0
   -6.6580    6.7194  -14.4518 O   0  0  0  0  0  0  0  0  0  0  0  0
   -7.7891    4.8008  -13.4220 N   0  0  0  0  0  0  0  0  0  0  0  0
   -8.0390    5.0813  -12.0349 C   0  0  2  0  0  0  0  0  0  0  0  0
   -7.4708    6.4036  -11.5102 C   0  0  0  0  0  0  0  0  0  0  0  0
   -7.6377    6.5717   -9.9856 C   0  0  0  0  0  0  0  0  0  0  0  0
   -8.5295    5.5033   -9.3419 C   0  0  0  0  0  0  0  0  0  0  0  0
   -8.0705    4.1316   -9.7550 C   0  0  0  0  0  0  0  0  0  0  0  0
   -7.9585    3.0874   -8.8436 C   0  0  0  0  0  0  0  0  0  0  0  0
   -7.2328    1.9605   -9.2082 C   0  0  0  0  0  0  0  0  0  0  0  0
   -6.6083    1.9111  -10.4593 C   0  0  0  0  0  0  0  0  0  0  0  0
   -5.5699    0.9150  -10.7149 N   0  0  0  0  0  0  0  0  0  0  0  0
   -5.6196   -0.1722  -10.1173 O   0  0  0  0  0  0  0  0  0  0  0  0
   -4.6561    1.2617  -11.4790 O   0  0  0  0  0  0  0  0  0  0  0  0
   -6.8741    2.8720  -11.4376 C   0  0  0  0  0  0  0  0  0  0  0  0
   -7.6615    3.9669  -11.0959 C   0  0  0  0  0  0  0  0  0  0  0  0
   -6.2426    5.1229  -16.7572 C   0  0  0  0  0  0  0  0  0  0  0  0
   -3.4005    5.1207  -20.0930 O   0  0  0  0  0  0  0  0  0  0  0  0
   -2.0131    5.4711  -20.1939 C   0  0  0  0  0  0  0  0  0  0  0  0
   -1.9059    6.9637  -20.3994 C   0  0  0  0  0  0  0  0  0  0  0  0
   -1.9678    7.5077  -21.6892 C   0  0  0  0  0  0  0  0  0  0  0  0
   -1.9120    8.8898  -21.8785 C   0  0  0  0  0  0  0  0  0  0  0  0
   -1.8061    9.7422  -20.7805 C   0  0  0  0  0  0  0  0  0  0  0  0
   -1.7560    9.2138  -19.4922 C   0  0  0  0  0  0  0  0  0  0  0  0
   -1.8053    7.8319  -19.3023 C   0  0  0  0  0  0  0  0  0  0  0  0
  1  2  2  0
  2  3  1  0
  3  4  1  0
  4  5  2  0
  5  6  1  0
  6  7  1  0
  6  8  2  0
  8  9  1  0
  9 10  1  0
 10 11  2  0
 10 12  1  0
 13 12  1  6
 13 14  1  0
 14 15  1  0
 15 16  1  0
 16 17  1  0
 17 18  2  0
 18 19  1  0
 19 20  2  0
 20 21  1  0
 21 22  2  0
 21 23  1  0
 20 24  1  0
 24 25  2  0
  9 26  2  0
  2 27  1  0
 27 28  1  0
 28 29  1  0
 29 30  2  0
 30 31  1  0
 31 32  2  0
 32 33  1  0
 33 34  2  0
 26  4  1  0
 34 29  1  0
 25 13  1  0
 25 17  1  0
M  CHG  2  21   1  23  -1
M  END
>  <name>  (6) 
P103291

>  <alias>  (6) 
None

>  <smina_score_min>  (6) 
-8.06

>  <exports>  (6) 
['/opt/xchem-fragalysis-2/maxwin/BulkDock/OUTPUTS/openbind_xx01zvns2b_c2_elabs_1LOUTNY.sdf', '/opt/xchem-fragalysis-2/maxwin/BulkDock/OUTPUTS/openbind_xx01zvns2b_c2_elabs_1LSYIIV.sdf', '/opt/xchem-fragalysis-2/maxwin/openbind-hippo/xx01zvns2b/cycle_02/gnina/openbind_xx01zvns2b_c2_elabs_scored_6.2plus_products.sdf']

>  <tags>  (6) 
syndirella_placed,openbind_xx01zvns2b_c2_elabs,openbind_xx01zvns2b_c2_elabs_scored_6.2plus,syndirella_product,openbind_xx01zvns2b_c2_elabs_scored,openbind_xx01zvns2b_c2_elabs_scored_top80percent,BulkDock Fragalysis export,openbind_xx01zvns2b_c2_elabs_scored_top80percent_despaghettified

>  <subsites>  (6) 
1 - Z4590/B/203/1

>  <smiles>  (6) 
O=C(Nc1cc(Cl)cc(C(=O)N[C@@H]2CCCc3ccc([N+](=O)[O-])cc32)c1)OCc1ccccc1

>  <HIPPO Pose ID>  (6) 
103291

>  <energy_score>  (6) 
-3.520912

>  <inchikey>  (6) 
UXNINWXHBFGPFJ-HSZRJFAPSA-N

>  <gnina_score_min>  (6) 
6.34

>  <gnina_score>  (6) 
6.304

>  <ref_mols>  (6) 
Z2992a

>  <HIPPO Compound ID>  (6) 
162911

>  <distance_score>  (6) 
0.674684

>  <rmsd(smina/fragmenstein)>  (6) 
1.949

>  <ref_pdb>  (6) 
Z2992a

>  <inspiration_score>  (6) 
None

$$$$
P103314
     RDKit          3D

 34 37  0  0  0  0  0  0  0  0999 V2000
   -4.9816    3.8546   -9.1192 C   0  0  0  0  0  0  0  0  0  0  0  0
   -5.1518    2.6203   -9.9985 C   0  0  0  0  0  0  0  0  0  0  0  0
   -4.8901    2.9705  -11.4636 C   0  0  0  0  0  0  0  0  0  0  0  0
   -6.4483    1.7993   -9.7676 C   0  0  0  0  0  0  0  0  0  0  0  0
   -7.8126    2.3051   -9.8713 N   0  0  0  0  0  0  0  0  0  0  0  0
   -8.2471    3.3007   -8.8895 C   0  0  0  0  0  0  0  0  0  0  0  0
   -8.3207    4.5700   -9.6772 C   0  0  0  0  0  0  0  0  0  0  0  0
   -8.3477    5.8717   -9.2209 C   0  0  0  0  0  0  0  0  0  0  0  0
   -8.2340    6.8888  -10.1662 C   0  0  0  0  0  0  0  0  0  0  0  0
   -8.0859    6.5897  -11.5333 C   0  0  0  0  0  0  0  0  0  0  0  0
   -8.0984    5.2691  -11.9842 C   0  0  0  0  0  0  0  0  0  0  0  0
   -7.8866    4.9557  -13.3205 N   0  0  0  0  0  0  0  0  0  0  0  0
   -7.3282    5.8117  -14.4726 C   0  0  0  0  0  0  0  0  0  0  0  0
   -6.8857    6.8908  -14.4670 O   0  0  0  0  0  0  0  0  0  0  0  0
   -7.4356    5.1169  -15.7799 C   0  0  0  0  0  0  0  0  0  0  0  0
   -8.6817    4.6754  -16.2236 C   0  0  0  0  0  0  0  0  0  0  0  0
   -8.8345    4.3343  -17.5638 C   0  0  0  0  0  0  0  0  0  0  0  0
  -10.3994    3.9910  -18.1730 Cl  0  0  0  0  0  0  0  0  0  0  0  0
   -7.7565    4.3849  -18.4443 C   0  0  0  0  0  0  0  0  0  0  0  0
   -6.4988    4.7670  -17.9797 C   0  0  0  0  0  0  0  0  0  0  0  0
   -5.4439    4.7990  -18.8851 N   0  0  0  0  0  0  0  0  0  0  0  0
   -3.9731    5.1622  -18.6843 C   0  0  0  0  0  0  0  0  0  0  0  0
   -3.3858    5.4200  -17.7149 O   0  0  0  0  0  0  0  0  0  0  0  0
   -3.4354    5.1390  -19.9332 O   0  0  0  0  0  0  0  0  0  0  0  0
   -2.0526    5.5080  -20.0268 C   0  0  0  0  0  0  0  0  0  0  0  0
   -1.9569    6.9891  -20.3009 C   0  0  0  0  0  0  0  0  0  0  0  0
   -1.9947    7.4719  -21.6159 C   0  0  0  0  0  0  0  0  0  0  0  0
   -1.9394    8.8439  -21.8679 C   0  0  0  0  0  0  0  0  0  0  0  0
   -1.8575    9.7465  -20.8086 C   0  0  0  0  0  0  0  0  0  0  0  0
   -1.8321    9.2786  -19.4963 C   0  0  0  0  0  0  0  0  0  0  0  0
   -1.8821    7.9071  -19.2434 C   0  0  0  0  0  0  0  0  0  0  0  0
   -6.3367    5.1397  -16.6466 C   0  0  0  0  0  0  0  0  0  0  0  0
   -8.2404    4.2720  -11.0437 C   0  0  0  0  0  0  0  0  0  0  0  0
   -8.1959    2.7934  -11.1980 C   0  0  0  0  0  0  0  0  0  0  0  0
  1  2  1  0
  2  3  1  0
  2  4  1  0
  4  5  1  0
  5  6  1  0
  6  7  1  0
  7  8  2  0
  8  9  1  0
  9 10  2  0
 10 11  1  0
 11 12  1  0
 12 13  1  0
 13 14  2  0
 13 15  1  0
 15 16  2  0
 16 17  1  0
 17 18  1  0
 17 19  2  0
 19 20  1  0
 20 21  1  0
 21 22  1  0
 22 23  2  0
 22 24  1  0
 24 25  1  0
 25 26  1  0
 26 27  2  0
 27 28  1  0
 28 29  2  0
 29 30  1  0
 30 31  2  0
 20 32  2  0
 11 33  2  0
 33 34  1  0
 34  5  1  0
 33  7  1  0
 32 15  1  0
 31 26  1  0
M  END
>  <name>  (7) 
P103314

>  <alias>  (7) 
None

>  <smina_score_min>  (7) 
-7.4

>  <exports>  (7) 
['/opt/xchem-fragalysis-2/maxwin/BulkDock/OUTPUTS/openbind_xx01zvns2b_c2_elabs_1LOUTNY.sdf', '/opt/xchem-fragalysis-2/maxwin/BulkDock/OUTPUTS/openbind_xx01zvns2b_c2_elabs_1LSYIIV.sdf', '/opt/xchem-fragalysis-2/maxwin/openbind-hippo/xx01zvns2b/cycle_02/gnina/openbind_xx01zvns2b_c2_elabs_scored_6.2plus_products.sdf']

>  <tags>  (7) 
syndirella_placed,openbind_xx01zvns2b_c2_elabs,openbind_xx01zvns2b_c2_elabs_scored_6.2plus,syndirella_product,openbind_xx01zvns2b_c2_elabs_scored,openbind_xx01zvns2b_c2_elabs_scored_top80percent,BulkDock Fragalysis export,openbind_xx01zvns2b_c2_elabs_scored_top80percent_despaghettified

>  <subsites>  (7) 
1 - Z4590/B/203/1

>  <smiles>  (7) 
CC(C)CN1Cc2cccc(NC(=O)c3cc(Cl)cc(NC(=O)OCc4ccccc4)c3)c2C1

>  <HIPPO Pose ID>  (7) 
103314

>  <energy_score>  (7) 
-22.665879

>  <inchikey>  (7) 
GVUUILTWKSDQMH-UHFFFAOYSA-N

>  <gnina_score_min>  (7) 
6.39

>  <gnina_score>  (7) 
6.398

>  <ref_mols>  (7) 
Z2992a

>  <HIPPO Compound ID>  (7) 
162946

>  <distance_score>  (7) 
0.702394

>  <rmsd(smina/fragmenstein)>  (7) 
1.387

>  <ref_pdb>  (7) 
Z2992a

>  <inspiration_score>  (7) 
None

$$$$
P103344
     RDKit          3D

 35 37  0  0  0  0  0  0  0  0999 V2000
   -3.5339    5.2398  -17.7291 O   0  0  0  0  0  0  0  0  0  0  0  0
   -4.1686    5.1345  -18.6970 C   0  0  0  0  0  0  0  0  0  0  0  0
   -5.6610    4.8583  -18.8787 N   0  0  0  0  0  0  0  0  0  0  0  0
   -6.6813    4.7488  -17.9394 C   0  0  0  0  0  0  0  0  0  0  0  0
   -7.9709    4.5082  -18.4022 C   0  0  0  0  0  0  0  0  0  0  0  0
   -9.0165    4.3568  -17.4958 C   0  0  0  0  0  0  0  0  0  0  0  0
  -10.6030    4.1261  -18.1054 Cl  0  0  0  0  0  0  0  0  0  0  0  0
   -8.7963    4.4368  -16.1215 C   0  0  0  0  0  0  0  0  0  0  0  0
   -7.5047    4.6728  -15.6541 C   0  0  0  0  0  0  0  0  0  0  0  0
   -7.1534    4.6870  -14.2003 C   0  0  0  0  0  0  0  0  0  0  0  0
   -6.3931    5.4858  -13.8293 O   0  0  0  0  0  0  0  0  0  0  0  0
   -7.8221    3.5257  -13.4510 N   0  0  0  0  0  0  0  0  0  0  0  0
   -7.6236    3.0364  -12.0964 C   0  0  2  0  0  0  0  0  0  0  0  0
   -8.1827    3.8229  -10.9328 C   0  0  0  0  0  0  0  0  0  0  0  0
   -7.9663    5.1876  -10.7291 C   0  0  0  0  0  0  0  0  0  0  0  0
   -8.2097    5.7463   -9.4722 C   0  0  0  0  0  0  0  0  0  0  0  0
   -8.6483    4.9486   -8.4096 C   0  0  0  0  0  0  0  0  0  0  0  0
   -8.9043    3.5925   -8.6142 C   0  0  0  0  0  0  0  0  0  0  0  0
   -9.3638    2.7404   -7.5114 N   0  0  0  0  0  0  0  0  0  0  0  0
   -9.3939    3.2510   -6.3792 O   0  0  0  0  0  0  0  0  0  0  0  0
   -9.7697    1.6003   -7.7771 O   0  0  0  0  0  0  0  0  0  0  0  0
   -8.7043    3.0458   -9.8730 C   0  0  0  0  0  0  0  0  0  0  0  0
   -6.1565    2.6737  -11.8034 C   0  0  0  0  0  0  0  0  0  0  0  0
   -6.0157    1.9694  -10.6567 F   0  0  0  0  0  0  0  0  0  0  0  0
   -5.3460    3.7522  -11.7142 F   0  0  0  0  0  0  0  0  0  0  0  0
   -5.6659    1.8860  -12.8004 F   0  0  0  0  0  0  0  0  0  0  0  0
   -6.4481    4.8369  -16.5675 C   0  0  0  0  0  0  0  0  0  0  0  0
   -3.6751    5.2295  -19.9608 O   0  0  0  0  0  0  0  0  0  0  0  0
   -2.2697    5.4967  -20.0708 C   0  0  0  0  0  0  0  0  0  0  0  0
   -2.0786    6.9755  -20.3002 C   0  0  0  0  0  0  0  0  0  0  0  0
   -2.0471    7.4958  -21.6010 C   0  0  0  0  0  0  0  0  0  0  0  0
   -1.9038    8.8685  -21.8109 C   0  0  0  0  0  0  0  0  0  0  0  0
   -1.8007    9.7346  -20.7233 C   0  0  0  0  0  0  0  0  0  0  0  0
   -1.8420    9.2294  -19.4250 C   0  0  0  0  0  0  0  0  0  0  0  0
   -1.9815    7.8569  -19.2139 C   0  0  0  0  0  0  0  0  0  0  0  0
  1  2  2  0
  2  3  1  0
  3  4  1  0
  4  5  2  0
  5  6  1  0
  6  7  1  0
  6  8  2  0
  8  9  1  0
  9 10  1  0
 10 11  2  0
 10 12  1  0
 13 12  1  6
 13 14  1  0
 14 15  2  0
 15 16  1  0
 16 17  2  0
 17 18  1  0
 18 19  1  0
 19 20  2  0
 19 21  1  0
 18 22  2  0
 13 23  1  0
 23 24  1  0
 23 25  1  0
 23 26  1  0
  9 27  2  0
  2 28  1  0
 28 29  1  0
 29 30  1  0
 30 31  2  0
 31 32  1  0
 32 33  2  0
 33 34  1  0
 34 35  2  0
 27  4  1  0
 35 30  1  0
 22 14  1  0
M  CHG  2  19   1  21  -1
M  END
>  <name>  (8) 
P103344

>  <alias>  (8) 
None

>  <smina_score_min>  (8) 
-8.094

>  <exports>  (8) 
['/opt/xchem-fragalysis-2/maxwin/BulkDock/OUTPUTS/openbind_xx01zvns2b_c2_elabs_1LOUTNY.sdf', '/opt/xchem-fragalysis-2/maxwin/BulkDock/OUTPUTS/openbind_xx01zvns2b_c2_elabs_1LSYIIV.sdf', '/opt/xchem-fragalysis-2/maxwin/openbind-hippo/xx01zvns2b/cycle_02/gnina/openbind_xx01zvns2b_c2_elabs_scored_6.2plus_products.sdf']

>  <tags>  (8) 
syndirella_placed,openbind_xx01zvns2b_c2_elabs,openbind_xx01zvns2b_c2_elabs_scored_6.2plus,syndirella_product,openbind_xx01zvns2b_c2_elabs_scored,openbind_xx01zvns2b_c2_elabs_scored_top80percent,BulkDock Fragalysis export,openbind_xx01zvns2b_c2_elabs_scored_top80percent_despaghettified

>  <subsites>  (8) 
1 - Z4590/B/203/1

>  <smiles>  (8) 
O=C(Nc1cc(Cl)cc(C(=O)N[C@H](c2cccc([N+](=O)[O-])c2)C(F)(F)F)c1)OCc1ccccc1

>  <HIPPO Pose ID>  (8) 
103344

>  <energy_score>  (8) 
-16.989275

>  <inchikey>  (8) 
FWVQLNSEUGNISE-HXUWFJFHSA-N

>  <gnina_score_min>  (8) 
6.317

>  <gnina_score>  (8) 
6.212

>  <ref_mols>  (8) 
Z2992a

>  <HIPPO Compound ID>  (8) 
162992

>  <distance_score>  (8) 
0.943774

>  <rmsd(smina/fragmenstein)>  (8) 
1.097

>  <ref_pdb>  (8) 
Z2992a

>  <inspiration_score>  (8) 
None

$$$$
P103346
     RDKit          3D

 35 37  0  0  0  0  0  0  0  0999 V2000
   -5.0032    0.6065  -10.6470 C   0  0  0  0  0  0  0  0  0  0  0  0
   -5.8773    1.7344  -10.5743 N   0  0  0  0  0  0  0  0  0  0  0  0
   -6.9548    2.2353  -11.5637 C   0  0  0  0  0  0  0  0  0  0  0  0
   -7.2432    1.8496  -12.6268 O   0  0  0  0  0  0  0  0  0  0  0  0
   -7.6403    3.4513  -11.0006 C   0  0  0  0  0  0  0  0  0  0  0  0
   -7.9430    3.4594   -9.6280 C   0  0  0  0  0  0  0  0  0  0  0  0
   -8.2746    4.6629   -9.0212 C   0  0  0  0  0  0  0  0  0  0  0  0
   -8.4751    4.7123   -7.5754 N   0  0  0  0  0  0  0  0  0  0  0  0
   -8.0993    5.7359   -6.9864 O   0  0  0  0  0  0  0  0  0  0  0  0
   -9.0067    3.7387   -7.0273 O   0  0  0  0  0  0  0  0  0  0  0  0
   -8.3700    5.8387   -9.7688 C   0  0  0  0  0  0  0  0  0  0  0  0
   -8.2043    5.8159  -11.1700 C   0  0  0  0  0  0  0  0  0  0  0  0
   -8.4932    7.1063  -11.8862 C   0  0  0  0  0  0  0  0  0  0  0  0
   -7.8288    4.6073  -11.8019 C   0  0  0  0  0  0  0  0  0  0  0  0
   -7.7431    4.4695  -13.1996 N   0  0  0  0  0  0  0  0  0  0  0  0
   -7.3033    5.4810  -14.2839 C   0  0  0  0  0  0  0  0  0  0  0  0
   -7.0168    6.6101  -14.1947 O   0  0  0  0  0  0  0  0  0  0  0  0
   -7.3638    4.9006  -15.6463 C   0  0  0  0  0  0  0  0  0  0  0  0
   -8.6151    4.5128  -16.1351 C   0  0  0  0  0  0  0  0  0  0  0  0
   -8.7678    4.2885  -17.4988 C   0  0  0  0  0  0  0  0  0  0  0  0
  -10.3279    3.9870  -18.1460 Cl  0  0  0  0  0  0  0  0  0  0  0  0
   -7.6847    4.4058  -18.3645 C   0  0  0  0  0  0  0  0  0  0  0  0
   -6.4275    4.7506  -17.8651 C   0  0  0  0  0  0  0  0  0  0  0  0
   -5.3784    4.8461  -18.7717 N   0  0  0  0  0  0  0  0  0  0  0  0
   -3.8983    5.1487  -18.5491 C   0  0  0  0  0  0  0  0  0  0  0  0
   -3.2981    5.2922  -17.5644 O   0  0  0  0  0  0  0  0  0  0  0  0
   -3.3681    5.1926  -19.7995 O   0  0  0  0  0  0  0  0  0  0  0  0
   -1.9807    5.5396  -19.8900 C   0  0  0  0  0  0  0  0  0  0  0  0
   -1.8836    7.0146  -20.1911 C   0  0  0  0  0  0  0  0  0  0  0  0
   -1.8570    7.4704  -21.5161 C   0  0  0  0  0  0  0  0  0  0  0  0
   -1.8069    8.8376  -21.7931 C   0  0  0  0  0  0  0  0  0  0  0  0
   -1.7933    9.7616  -20.7493 C   0  0  0  0  0  0  0  0  0  0  0  0
   -1.8316    9.3200  -19.4279 C   0  0  0  0  0  0  0  0  0  0  0  0
   -1.8782    7.9533  -19.1495 C   0  0  0  0  0  0  0  0  0  0  0  0
   -6.2658    5.0165  -16.5050 C   0  0  0  0  0  0  0  0  0  0  0  0
  1  2  1  0
  2  3  1  0
  3  4  2  0
  3  5  1  0
  5  6  2  0
  6  7  1  0
  7  8  1  0
  8  9  2  0
  8 10  1  0
  7 11  2  0
 11 12  1  0
 12 13  1  0
 12 14  2  0
 14 15  1  0
 15 16  1  0
 16 17  2  0
 16 18  1  0
 18 19  2  0
 19 20  1  0
 20 21  1  0
 20 22  2  0
 22 23  1  0
 23 24  1  0
 24 25  1  0
 25 26  2  0
 25 27  1  0
 27 28  1  0
 28 29  1  0
 29 30  2  0
 30 31  1  0
 31 32  2  0
 32 33  1  0
 33 34  2  0
 23 35  2  0
 14  5  1  0
 35 18  1  0
 34 29  1  0
M  CHG  2   8   1  10  -1
M  END
>  <name>  (9) 
P103346

>  <alias>  (9) 
None

>  <smina_score_min>  (9) 
-7.54

>  <exports>  (9) 
['/opt/xchem-fragalysis-2/maxwin/BulkDock/OUTPUTS/openbind_xx01zvns2b_c2_elabs_1LOUTNY.sdf', '/opt/xchem-fragalysis-2/maxwin/BulkDock/OUTPUTS/openbind_xx01zvns2b_c2_elabs_1LSYIIV.sdf', '/opt/xchem-fragalysis-2/maxwin/openbind-hippo/xx01zvns2b/cycle_02/gnina/openbind_xx01zvns2b_c2_elabs_scored_6.2plus_products.sdf']

>  <tags>  (9) 
syndirella_placed,openbind_xx01zvns2b_c2_elabs,openbind_xx01zvns2b_c2_elabs_scored_6.2plus,syndirella_product,openbind_xx01zvns2b_c2_elabs_scored,openbind_xx01zvns2b_c2_elabs_scored_top80percent,BulkDock Fragalysis export,openbind_xx01zvns2b_c2_elabs_scored_top80percent_despaghettified

>  <subsites>  (9) 
1 - Z4590/B/203/1

>  <smiles>  (9) 
CNC(=O)c1cc([N+](=O)[O-])cc(C)c1NC(=O)c1cc(Cl)cc(NC(=O)OCc2ccccc2)c1

>  <HIPPO Pose ID>  (9) 
103346

>  <energy_score>  (9) 
-29.520528

>  <inchikey>  (9) 
JCCBYBJGTSQXPJ-UHFFFAOYSA-N

>  <gnina_score_min>  (9) 
6.291

>  <gnina_score>  (9) 
6.376

>  <ref_mols>  (9) 
Z2992a

>  <HIPPO Compound ID>  (9) 
162993

>  <distance_score>  (9) 
0.784916

>  <rmsd(smina/fragmenstein)>  (9) 
1.266

>  <ref_pdb>  (9) 
Z2992a

>  <inspiration_score>  (9) 
None

$$$$
P103350
     RDKit          3D

 35 38  0  0  0  0  0  0  0  0999 V2000
   -6.7549    2.2039  -12.0015 C   0  0  0  0  0  0  0  0  0  0  0  0
   -6.8774    3.7113  -12.1562 C   0  0  1  0  0  0  0  0  0  0  0  0
   -7.2647    3.9833  -13.5180 N   0  0  0  0  0  0  0  0  0  0  0  0
   -6.9328    5.1680  -14.4289 C   0  0  0  0  0  0  0  0  0  0  0  0
   -6.3572    6.1538  -14.2050 O   0  0  0  0  0  0  0  0  0  0  0  0
   -7.3607    4.9056  -15.8264 C   0  0  0  0  0  0  0  0  0  0  0  0
   -8.6570    4.5506  -16.1883 C   0  0  0  0  0  0  0  0  0  0  0  0
   -8.9386    4.3621  -17.5429 C   0  0  0  0  0  0  0  0  0  0  0  0
  -10.5467    4.0607  -18.0603 Cl  0  0  0  0  0  0  0  0  0  0  0  0
   -7.9473    4.4944  -18.5171 C   0  0  0  0  0  0  0  0  0  0  0  0
   -6.6504    4.8233  -18.1430 C   0  0  0  0  0  0  0  0  0  0  0  0
   -5.6714    4.9630  -19.1183 N   0  0  0  0  0  0  0  0  0  0  0  0
   -4.1600    5.1626  -18.9887 C   0  0  0  0  0  0  0  0  0  0  0  0
   -3.4983    5.3192  -18.0456 O   0  0  0  0  0  0  0  0  0  0  0  0
   -3.6871    5.1821  -20.2651 O   0  0  0  0  0  0  0  0  0  0  0  0
   -2.2831    5.4582  -20.3938 C   0  0  0  0  0  0  0  0  0  0  0  0
   -2.0796    6.9493  -20.5277 C   0  0  0  0  0  0  0  0  0  0  0  0
   -2.1246    7.5590  -21.7879 C   0  0  0  0  0  0  0  0  0  0  0  0
   -1.9750    8.9416  -21.9122 C   0  0  0  0  0  0  0  0  0  0  0  0
   -1.7913    9.7303  -20.7776 C   0  0  0  0  0  0  0  0  0  0  0  0
   -1.7549    9.1373  -19.5176 C   0  0  0  0  0  0  0  0  0  0  0  0
   -1.8965    7.7543  -19.3932 C   0  0  0  0  0  0  0  0  0  0  0  0
   -6.3589    5.0289  -16.7991 C   0  0  0  0  0  0  0  0  0  0  0  0
   -7.6821    4.3835  -11.0637 C   0  0  0  0  0  0  0  0  0  0  0  0
   -7.6415    5.7706  -10.9149 C   0  0  0  0  0  0  0  0  0  0  0  0
   -8.1052    6.3537   -9.7422 C   0  0  0  0  0  0  0  0  0  0  0  0
   -8.5942    5.5606   -8.7020 C   0  0  0  0  0  0  0  0  0  0  0  0
   -8.7081    4.1795   -8.8306 C   0  0  0  0  0  0  0  0  0  0  0  0
   -9.1974    3.3614   -7.7817 N   0  0  0  0  0  0  0  0  0  0  0  0
   -9.3139    1.9302   -7.9196 C   0  0  0  0  0  0  0  0  0  0  0  0
   -9.5973    1.4491   -6.5226 C   0  0  0  0  0  0  0  0  0  0  0  0
  -10.3137    2.5946   -5.8537 C   0  0  0  0  0  0  0  0  0  0  0  0
   -9.7757    3.7981   -6.5783 C   0  0  0  0  0  0  0  0  0  0  0  0
   -9.9371    4.9357   -6.1547 O   0  0  0  0  0  0  0  0  0  0  0  0
   -8.2821    3.6190  -10.0383 C   0  0  0  0  0  0  0  0  0  0  0  0
  2  1  1  1
  2  3  1  0
  3  4  1  0
  4  5  2  0
  4  6  1  0
  6  7  2  0
  7  8  1  0
  8  9  1  0
  8 10  2  0
 10 11  1  0
 11 12  1  0
 12 13  1  0
 13 14  2  0
 13 15  1  0
 15 16  1  0
 16 17  1  0
 17 18  2  0
 18 19  1  0
 19 20  2  0
 20 21  1  0
 21 22  2  0
 11 23  2  0
  2 24  1  0
 24 25  2  0
 25 26  1  0
 26 27  2  0
 27 28  1  0
 28 29  1  0
 29 30  1  0
 30 31  1  0
 31 32  1  0
 32 33  1  0
 33 34  2  0
 28 35  2  0
 23  6  1  0
 35 24  1  0
 22 17  1  0
 33 29  1  0
M  END
>  <name>  (10) 
P103350

>  <alias>  (10) 
None

>  <smina_score_min>  (10) 
-8.265

>  <exports>  (10) 
['/opt/xchem-fragalysis-2/maxwin/BulkDock/OUTPUTS/openbind_xx01zvns2b_c2_elabs_1LOUTNY.sdf', '/opt/xchem-fragalysis-2/maxwin/BulkDock/OUTPUTS/openbind_xx01zvns2b_c2_elabs_1LSYIIV.sdf', '/opt/xchem-fragalysis-2/maxwin/openbind-hippo/xx01zvns2b/cycle_02/gnina/openbind_xx01zvns2b_c2_elabs_scored_6.2plus_products.sdf']

>  <tags>  (10) 
syndirella_placed,openbind_xx01zvns2b_c2_elabs,openbind_xx01zvns2b_c2_elabs_scored_6.2plus,syndirella_product,openbind_xx01zvns2b_c2_elabs_scored,openbind_xx01zvns2b_c2_elabs_scored_top80percent,BulkDock Fragalysis export,openbind_xx01zvns2b_c2_elabs_scored_top80percent_despaghettified

>  <subsites>  (10) 
1 - Z4590/B/203/1

>  <smiles>  (10) 
C[C@@H](NC(=O)c1cc(Cl)cc(NC(=O)OCc2ccccc2)c1)c1cccc(N2CCCC2=O)c1

>  <HIPPO Pose ID>  (10) 
103350

>  <energy_score>  (10) 
-31.877607

>  <inchikey>  (10) 
MDADESGNTKOFAF-GOSISDBHSA-N

>  <gnina_score_min>  (10) 
6.342

>  <gnina_score>  (10) 
6.184

>  <ref_mols>  (10) 
Z2992a

>  <HIPPO Compound ID>  (10) 
162998

>  <distance_score>  (10) 
1.015096

>  <rmsd(smina/fragmenstein)>  (10) 
1.215

>  <ref_pdb>  (10) 
Z2992a

>  <inspiration_score>  (10) 
None

$$$$
P103351
     RDKit          3D

 35 38  0  0  0  0  0  0  0  0999 V2000
   -7.4534    8.3000  -12.0561 C   0  0  0  0  0  0  0  0  0  0  0  0
   -8.4636    7.3323  -12.3367 O   0  0  0  0  0  0  0  0  0  0  0  0
   -8.3507    6.2198  -11.5422 C   0  0  0  0  0  0  0  0  0  0  0  0
   -8.4260    6.3437  -10.1514 C   0  0  0  0  0  0  0  0  0  0  0  0
   -8.3878    5.2062   -9.3490 C   0  0  0  0  0  0  0  0  0  0  0  0
   -8.3450    3.9334   -9.9338 C   0  0  0  0  0  0  0  0  0  0  0  0
   -7.9849    2.7261   -9.0972 C   0  0  0  0  0  0  0  0  0  0  0  0
   -6.5650    2.3681   -9.2019 N   0  0  0  0  0  0  0  0  0  0  0  0
   -5.5885    3.4468   -9.1264 C   0  0  0  0  0  0  0  0  0  0  0  0
   -4.2845    2.7322   -9.4287 C   0  0  0  0  0  0  0  0  0  0  0  0
   -4.6770    1.7224  -10.4917 C   0  0  0  0  0  0  0  0  0  0  0  0
   -6.1627    1.4549  -10.2601 C   0  0  0  0  0  0  0  0  0  0  0  0
   -8.4138    3.8141  -11.3258 C   0  0  0  0  0  0  0  0  0  0  0  0
   -8.3226    4.9483  -12.1296 C   0  0  0  0  0  0  0  0  0  0  0  0
   -8.0948    4.7145  -13.4831 N   0  0  0  0  0  0  0  0  0  0  0  0
   -7.3937    5.5867  -14.5479 C   0  0  0  0  0  0  0  0  0  0  0  0
   -6.8294    6.6033  -14.4417 O   0  0  0  0  0  0  0  0  0  0  0  0
   -7.5217    4.9999  -15.9013 C   0  0  0  0  0  0  0  0  0  0  0  0
   -8.7736    4.5944  -16.3534 C   0  0  0  0  0  0  0  0  0  0  0  0
   -8.9416    4.3128  -17.7014 C   0  0  0  0  0  0  0  0  0  0  0  0
  -10.5230    4.0236  -18.2835 Cl  0  0  0  0  0  0  0  0  0  0  0  0
   -7.8726    4.3891  -18.5900 C   0  0  0  0  0  0  0  0  0  0  0  0
   -6.6116    4.7598  -18.1249 C   0  0  0  0  0  0  0  0  0  0  0  0
   -5.5711    4.8763  -19.0386 N   0  0  0  0  0  0  0  0  0  0  0  0
   -4.0825    5.1486  -18.8203 C   0  0  0  0  0  0  0  0  0  0  0  0
   -3.4960    5.3958  -17.8476 O   0  0  0  0  0  0  0  0  0  0  0  0
   -3.5307    5.1055  -20.0633 O   0  0  0  0  0  0  0  0  0  0  0  0
   -2.1382    5.4454  -20.1376 C   0  0  0  0  0  0  0  0  0  0  0  0
   -2.0022    6.9315  -20.3707 C   0  0  0  0  0  0  0  0  0  0  0  0
   -1.8911    7.8183  -19.2896 C   0  0  0  0  0  0  0  0  0  0  0  0
   -1.8068    9.1947  -19.5053 C   0  0  0  0  0  0  0  0  0  0  0  0
   -1.8322    9.6991  -20.8038 C   0  0  0  0  0  0  0  0  0  0  0  0
   -1.9482    8.8283  -21.8862 C   0  0  0  0  0  0  0  0  0  0  0  0
   -2.0387    7.4517  -21.6711 C   0  0  0  0  0  0  0  0  0  0  0  0
   -6.4333    5.0650  -16.7771 C   0  0  0  0  0  0  0  0  0  0  0  0
  1  2  1  0
  2  3  1  0
  3  4  2  0
  4  5  1  0
  5  6  2  0
  6  7  1  0
  7  8  1  0
  8  9  1  0
  9 10  1  0
 10 11  1  0
 11 12  1  0
  6 13  1  0
 13 14  2  0
 14 15  1  0
 15 16  1  0
 16 17  2  0
 16 18  1  0
 18 19  2  0
 19 20  1  0
 20 21  1  0
 20 22  2  0
 22 23  1  0
 23 24  1  0
 24 25  1  0
 25 26  2  0
 25 27  1  0
 27 28  1  0
 28 29  1  0
 29 30  2  0
 30 31  1  0
 31 32  2  0
 32 33  1  0
 33 34  2  0
 23 35  2  0
 14  3  1  0
 35 18  1  0
 12  8  1  0
 34 29  1  0
M  END
>  <name>  (11) 
P103351

>  <alias>  (11) 
None

>  <smina_score_min>  (11) 
-7.144

>  <exports>  (11) 
['/opt/xchem-fragalysis-2/maxwin/BulkDock/OUTPUTS/openbind_xx01zvns2b_c2_elabs_1LOUTNY.sdf', '/opt/xchem-fragalysis-2/maxwin/BulkDock/OUTPUTS/openbind_xx01zvns2b_c2_elabs_1LSYIIV.sdf', '/opt/xchem-fragalysis-2/maxwin/openbind-hippo/xx01zvns2b/cycle_02/gnina/openbind_xx01zvns2b_c2_elabs_scored_6.2plus_products.sdf']

>  <tags>  (11) 
syndirella_placed,openbind_xx01zvns2b_c2_elabs,openbind_xx01zvns2b_c2_elabs_scored_6.2plus,syndirella_product,openbind_xx01zvns2b_c2_elabs_scored,openbind_xx01zvns2b_c2_elabs_scored_top80percent,BulkDock Fragalysis export,openbind_xx01zvns2b_c2_elabs_scored_top80percent_despaghettified

>  <subsites>  (11) 
1 - Z4590/B/203/1

>  <smiles>  (11) 
COc1ccc(CN2CCCC2)cc1NC(=O)c1cc(Cl)cc(NC(=O)OCc2ccccc2)c1

>  <HIPPO Pose ID>  (11) 
103351

>  <energy_score>  (11) 
-33.593175

>  <inchikey>  (11) 
JRFIYFLJGXCUAZ-UHFFFAOYSA-N

>  <gnina_score_min>  (11) 
6.308

>  <gnina_score>  (11) 
6.403

>  <ref_mols>  (11) 
Z2992a

>  <HIPPO Compound ID>  (11) 
162999

>  <distance_score>  (11) 
0.609794

>  <rmsd(smina/fragmenstein)>  (11) 
1.207

>  <ref_pdb>  (11) 
Z2992a

>  <inspiration_score>  (11) 
None

$$$$
P103354
     RDKit          3D

 35 38  0  0  0  0  0  0  0  0999 V2000
   -8.8058    3.2739   -7.3170 C   0  0  0  0  0  0  0  0  0  0  0  0
   -8.0844    2.9815   -8.5667 C   0  0  0  0  0  0  0  0  0  0  0  0
   -7.6035    1.7710   -8.8521 C   0  0  0  0  0  0  0  0  0  0  0  0
   -7.0525    1.7745  -10.0914 N   0  0  0  0  0  0  0  0  0  0  0  0
   -7.2772    3.0076  -10.6991 C   0  0  0  0  0  0  0  0  0  0  0  0
   -6.9576    3.2421  -11.8532 O   0  0  0  0  0  0  0  0  0  0  0  0
   -7.8935    3.8134   -9.6677 N   0  0  0  0  0  0  0  0  0  0  0  0
   -8.1816    5.1863   -9.8440 C   0  0  0  0  0  0  0  0  0  0  0  0
   -8.3153    6.0781   -8.7766 C   0  0  0  0  0  0  0  0  0  0  0  0
   -8.5486    7.4376   -9.0052 C   0  0  0  0  0  0  0  0  0  0  0  0
   -8.6342    7.9230  -10.3088 C   0  0  0  0  0  0  0  0  0  0  0  0
   -8.4993    7.0529  -11.3969 C   0  0  0  0  0  0  0  0  0  0  0  0
   -8.5735    7.5883  -12.7962 C   0  0  0  0  0  0  0  0  0  0  0  0
   -8.3680    6.6361  -13.8626 N   0  0  0  0  0  0  0  0  0  0  0  0
   -7.0718    5.9786  -14.3840 C   0  0  0  0  0  0  0  0  0  0  0  0
   -5.9784    6.0437  -13.9848 O   0  0  0  0  0  0  0  0  0  0  0  0
   -7.2998    5.2209  -15.6751 C   0  0  0  0  0  0  0  0  0  0  0  0
   -8.5367    4.7135  -16.0887 C   0  0  0  0  0  0  0  0  0  0  0  0
   -8.7163    4.3581  -17.4297 C   0  0  0  0  0  0  0  0  0  0  0  0
  -10.2836    3.9711  -18.0216 Cl  0  0  0  0  0  0  0  0  0  0  0  0
   -7.6682    4.4329  -18.3429 C   0  0  0  0  0  0  0  0  0  0  0  0
   -6.4101    4.8362  -17.9118 C   0  0  0  0  0  0  0  0  0  0  0  0
   -5.3819    4.9059  -18.8445 N   0  0  0  0  0  0  0  0  0  0  0  0
   -3.9004    5.2355  -18.6670 C   0  0  0  0  0  0  0  0  0  0  0  0
   -3.3119    5.5774  -17.7250 O   0  0  0  0  0  0  0  0  0  0  0  0
   -3.3643    5.1175  -19.9120 O   0  0  0  0  0  0  0  0  0  0  0  0
   -1.9887    5.5055  -20.0330 C   0  0  0  0  0  0  0  0  0  0  0  0
   -1.9128    6.9852  -20.3277 C   0  0  0  0  0  0  0  0  0  0  0  0
   -2.0210    7.4534  -21.6437 C   0  0  0  0  0  0  0  0  0  0  0  0
   -1.9867    8.8230  -21.9127 C   0  0  0  0  0  0  0  0  0  0  0  0
   -1.8568    9.7381  -20.8689 C   0  0  0  0  0  0  0  0  0  0  0  0
   -1.7611    9.2851  -19.5549 C   0  0  0  0  0  0  0  0  0  0  0  0
   -1.7882    7.9161  -19.2858 C   0  0  0  0  0  0  0  0  0  0  0  0
   -6.2258    5.2204  -16.5841 C   0  0  0  0  0  0  0  0  0  0  0  0
   -8.2962    5.6985  -11.1385 C   0  0  0  0  0  0  0  0  0  0  0  0
  1  2  1  0
  2  3  2  0
  3  4  1  0
  4  5  1  0
  5  6  2  0
  5  7  1  0
  7  8  1  0
  8  9  2  0
  9 10  1  0
 10 11  2  0
 11 12  1  0
 12 13  1  0
 13 14  1  0
 14 15  1  0
 15 16  2  0
 15 17  1  0
 17 18  2  0
 18 19  1  0
 19 20  1  0
 19 21  2  0
 21 22  1  0
 22 23  1  0
 23 24  1  0
 24 25  2  0
 24 26  1  0
 26 27  1  0
 27 28  1  0
 28 29  2  0
 29 30  1  0
 30 31  2  0
 31 32  1  0
 32 33  2  0
 22 34  2  0
 12 35  2  0
  7  2  1  0
 35  8  1  0
 34 17  1  0
 33 28  1  0
M  END
>  <name>  (12) 
P103354

>  <alias>  (12) 
None

>  <smina_score_min>  (12) 
-7.193

>  <exports>  (12) 
['/opt/xchem-fragalysis-2/maxwin/BulkDock/OUTPUTS/openbind_xx01zvns2b_c2_elabs_1LOUTNY.sdf', '/opt/xchem-fragalysis-2/maxwin/BulkDock/OUTPUTS/openbind_xx01zvns2b_c2_elabs_1LSYIIV.sdf', '/opt/xchem-fragalysis-2/maxwin/openbind-hippo/xx01zvns2b/cycle_02/gnina/openbind_xx01zvns2b_c2_elabs_scored_6.2plus_products.sdf']

>  <tags>  (12) 
syndirella_placed,openbind_xx01zvns2b_c2_elabs,openbind_xx01zvns2b_c2_elabs_scored_6.2plus,syndirella_product,openbind_xx01zvns2b_c2_elabs_scored,openbind_xx01zvns2b_c2_elabs_scored_top80percent,BulkDock Fragalysis export,openbind_xx01zvns2b_c2_elabs_scored_top80percent_despaghettified

>  <subsites>  (12) 
1 - Z4590/B/203/1

>  <smiles>  (12) 
Cc1c[nH]c(=O)n1-c1cccc(CNC(=O)c2cc(Cl)cc(NC(=O)OCc3ccccc3)c2)c1

>  <HIPPO Pose ID>  (12) 
103354

>  <energy_score>  (12) 
-1.087449

>  <inchikey>  (12) 
YHMZQPXASTUQHD-UHFFFAOYSA-N

>  <gnina_score_min>  (12) 
6.206

>  <gnina_score>  (12) 
6.188

>  <ref_mols>  (12) 
Z2992a

>  <HIPPO Compound ID>  (12) 
163004

>  <distance_score>  (12) 
1.03817

>  <rmsd(smina/fragmenstein)>  (12) 
1.847

>  <ref_pdb>  (12) 
Z2992a

>  <inspiration_score>  (12) 
None

$$$$
P103369
     RDKit          3D

 35 38  0  0  0  0  0  0  0  0999 V2000
   -3.2196    5.2826  -18.0537 O   0  0  0  0  0  0  0  0  0  0  0  0
   -3.8600    5.0522  -18.9961 C   0  0  0  0  0  0  0  0  0  0  0  0
   -5.3500    4.7345  -19.1293 N   0  0  0  0  0  0  0  0  0  0  0  0
   -6.3607    4.7246  -18.1746 C   0  0  0  0  0  0  0  0  0  0  0  0
   -7.6486    4.3549  -18.5484 C   0  0  0  0  0  0  0  0  0  0  0  0
   -8.6735    4.3799  -17.6049 C   0  0  0  0  0  0  0  0  0  0  0  0
  -10.2755    4.0104  -18.1085 Cl  0  0  0  0  0  0  0  0  0  0  0  0
   -8.4434    4.8239  -16.3001 C   0  0  0  0  0  0  0  0  0  0  0  0
   -7.1612    5.2581  -15.9454 C   0  0  0  0  0  0  0  0  0  0  0  0
   -6.8972    6.1109  -14.7373 C   0  0  0  0  0  0  0  0  0  0  0  0
   -6.0980    6.9481  -14.8544 O   0  0  0  0  0  0  0  0  0  0  0  0
   -7.8225    5.7801  -13.5651 N   0  0  0  0  0  0  0  0  0  0  0  0
   -8.0322    6.4636  -12.3207 C   0  0  0  0  0  0  0  0  0  0  0  0
   -7.7237    5.5858  -11.1496 C   0  0  0  0  0  0  0  0  0  0  0  0
   -8.5574    5.5848  -10.0301 C   0  0  0  0  0  0  0  0  0  0  0  0
   -8.3447    4.6860   -8.9890 C   0  0  0  0  0  0  0  0  0  0  0  0
   -7.2533    3.8253   -9.0311 C   0  0  0  0  0  0  0  0  0  0  0  0
   -6.3387    3.9101  -10.0795 C   0  0  0  0  0  0  0  0  0  0  0  0
   -5.1770    3.1535  -10.0234 N   0  0  0  0  0  0  0  0  0  0  0  0
   -3.9474    3.1206  -10.9729 C   0  0  0  0  0  0  0  0  0  0  0  0
   -3.7590    3.6702  -11.9906 O   0  0  0  0  0  0  0  0  0  0  0  0
   -2.8778    2.1981  -10.3068 C   0  0  0  0  0  0  0  0  0  0  0  0
   -3.1142    0.6738  -10.3944 C   0  0  0  0  0  0  0  0  0  0  0  0
   -2.1715    0.6507  -11.6119 C   0  0  0  0  0  0  0  0  0  0  0  0
   -1.5477    1.9480  -11.0708 C   0  0  0  0  0  0  0  0  0  0  0  0
   -6.5802    4.7774  -11.1395 C   0  0  0  0  0  0  0  0  0  0  0  0
   -6.1150    5.1493  -16.8714 C   0  0  0  0  0  0  0  0  0  0  0  0
   -3.3808    5.0650  -20.2700 O   0  0  0  0  0  0  0  0  0  0  0  0
   -2.0067    5.4589  -20.3985 C   0  0  0  0  0  0  0  0  0  0  0  0
   -1.9282    6.9617  -20.5405 C   0  0  0  0  0  0  0  0  0  0  0  0
   -2.0412    7.5595  -21.8021 C   0  0  0  0  0  0  0  0  0  0  0  0
   -2.0026    8.9490  -21.9340 C   0  0  0  0  0  0  0  0  0  0  0  0
   -1.8645    9.7557  -20.8055 C   0  0  0  0  0  0  0  0  0  0  0  0
   -1.7644    9.1738  -19.5437 C   0  0  0  0  0  0  0  0  0  0  0  0
   -1.7943    7.7846  -19.4120 C   0  0  0  0  0  0  0  0  0  0  0  0
  1  2  2  0
  2  3  1  0
  3  4  1  0
  4  5  2  0
  5  6  1  0
  6  7  1  0
  6  8  2  0
  8  9  1  0
  9 10  1  0
 10 11  2  0
 10 12  1  0
 12 13  1  0
 13 14  1  0
 14 15  2  0
 15 16  1  0
 16 17  2  0
 17 18  1  0
 18 19  1  0
 19 20  1  0
 20 21  2  0
 20 22  1  0
 22 23  1  0
 23 24  1  0
 24 25  1  0
 18 26  2  0
  9 27  2  0
  2 28  1  0
 28 29  1  0
 29 30  1  0
 30 31  2  0
 31 32  1  0
 32 33  2  0
 33 34  1  0
 34 35  2  0
 27  4  1  0
 35 30  1  0
 26 14  1  0
 25 22  1  0
M  END
>  <name>  (13) 
P103369

>  <alias>  (13) 
None

>  <smina_score_min>  (13) 
-7.171

>  <exports>  (13) 
['/opt/xchem-fragalysis-2/maxwin/BulkDock/OUTPUTS/openbind_xx01zvns2b_c2_elabs_1LOUTNY.sdf', '/opt/xchem-fragalysis-2/maxwin/BulkDock/OUTPUTS/openbind_xx01zvns2b_c2_elabs_1LSYIIV.sdf', '/opt/xchem-fragalysis-2/maxwin/openbind-hippo/xx01zvns2b/cycle_02/gnina/openbind_xx01zvns2b_c2_elabs_scored_6.2plus_products.sdf']

>  <tags>  (13) 
syndirella_placed,openbind_xx01zvns2b_c2_elabs,openbind_xx01zvns2b_c2_elabs_scored_6.2plus,syndirella_product,openbind_xx01zvns2b_c2_elabs_scored,openbind_xx01zvns2b_c2_elabs_scored_top80percent,BulkDock Fragalysis export,openbind_xx01zvns2b_c2_elabs_scored_top80percent_despaghettified

>  <subsites>  (13) 
1 - Z4590/B/203/1

>  <smiles>  (13) 
O=C(Nc1cc(Cl)cc(C(=O)NCc2cccc(NC(=O)C3CCC3)c2)c1)OCc1ccccc1

>  <HIPPO Pose ID>  (13) 
103369

>  <energy_score>  (13) 
-24.311739

>  <inchikey>  (13) 
ITFYQJZCEWXXSE-UHFFFAOYSA-N

>  <gnina_score_min>  (13) 
6.292

>  <gnina_score>  (13) 
6.246

>  <ref_mols>  (13) 
Z2992a

>  <HIPPO Compound ID>  (13) 
163025

>  <distance_score>  (13) 
1.402304

>  <rmsd(smina/fragmenstein)>  (13) 
1.204

>  <ref_pdb>  (13) 
Z2992a

>  <inspiration_score>  (13) 
None

$$$$
P103371
     RDKit          3D

 35 38  0  0  0  0  0  0  0  0999 V2000
   -6.6845    2.1262  -11.9811 C   0  0  0  0  0  0  0  0  0  0  0  0
   -6.7122    3.6374  -12.1750 C   0  0  1  0  0  0  0  0  0  0  0  0
   -7.1044    3.9277  -13.5425 N   0  0  0  0  0  0  0  0  0  0  0  0
   -6.6688    4.9393  -14.4444 C   0  0  0  0  0  0  0  0  0  0  0  0
   -5.9247    5.8622  -14.2842 O   0  0  0  0  0  0  0  0  0  0  0  0
   -7.1506    4.7490  -15.8435 C   0  0  0  0  0  0  0  0  0  0  0  0
   -8.4785    4.4627  -16.1644 C   0  0  0  0  0  0  0  0  0  0  0  0
   -8.8292    4.3460  -17.5104 C   0  0  0  0  0  0  0  0  0  0  0  0
  -10.4621    4.0866  -17.9736 Cl  0  0  0  0  0  0  0  0  0  0  0  0
   -7.8820    4.5026  -18.5219 C   0  0  0  0  0  0  0  0  0  0  0  0
   -6.5597    4.7868  -18.2014 C   0  0  0  0  0  0  0  0  0  0  0  0
   -5.6445    4.9522  -19.2369 N   0  0  0  0  0  0  0  0  0  0  0  0
   -4.2394    5.1279  -19.2172 C   0  0  0  0  0  0  0  0  0  0  0  0
   -3.4811    5.2585  -18.3046 O   0  0  0  0  0  0  0  0  0  0  0  0
   -3.8461    5.1566  -20.5217 O   0  0  0  0  0  0  0  0  0  0  0  0
   -2.4402    5.3530  -20.7431 C   0  0  0  0  0  0  0  0  0  0  0  0
   -2.1575    6.8300  -20.8784 C   0  0  0  0  0  0  0  0  0  0  0  0
   -2.3666    7.4854  -22.0991 C   0  0  0  0  0  0  0  0  0  0  0  0
   -2.1352    8.8575  -22.2148 C   0  0  0  0  0  0  0  0  0  0  0  0
   -1.7035    9.5894  -21.1095 C   0  0  0  0  0  0  0  0  0  0  0  0
   -1.5035    8.9504  -19.8875 C   0  0  0  0  0  0  0  0  0  0  0  0
   -1.7300    7.5781  -19.7722 C   0  0  0  0  0  0  0  0  0  0  0  0
   -6.1961    4.9076  -16.8631 C   0  0  0  0  0  0  0  0  0  0  0  0
   -7.4650    4.4287  -11.1149 C   0  0  0  0  0  0  0  0  0  0  0  0
   -7.4280    5.8309  -11.1540 C   0  0  0  0  0  0  0  0  0  0  0  0
   -7.9038    6.5881  -10.0882 C   0  0  0  0  0  0  0  0  0  0  0  0
   -8.3940    5.9545   -8.9485 C   0  0  0  0  0  0  0  0  0  0  0  0
   -8.4756    4.5585   -8.8780 C   0  0  0  0  0  0  0  0  0  0  0  0
   -8.9031    3.9339   -7.6832 N   0  0  0  0  0  0  0  0  0  0  0  0
   -8.8795    4.5936   -6.3999 C   0  0  0  0  0  0  0  0  0  0  0  0
   -8.8754    3.4395   -5.4162 C   0  0  0  0  0  0  0  0  0  0  0  0
   -9.4924    2.3734   -6.1467 N   0  0  0  0  0  0  0  0  0  0  0  0
   -9.3322    2.6028   -7.5203 C   0  0  0  0  0  0  0  0  0  0  0  0
   -9.5622    1.7480   -8.3563 O   0  0  0  0  0  0  0  0  0  0  0  0
   -8.0458    3.8124   -9.9841 C   0  0  0  0  0  0  0  0  0  0  0  0
  2  1  1  1
  2  3  1  0
  3  4  1  0
  4  5  2  0
  4  6  1  0
  6  7  2  0
  7  8  1  0
  8  9  1  0
  8 10  2  0
 10 11  1  0
 11 12  1  0
 12 13  1  0
 13 14  2  0
 13 15  1  0
 15 16  1  0
 16 17  1  0
 17 18  2  0
 18 19  1  0
 19 20  2  0
 20 21  1  0
 21 22  2  0
 11 23  2  0
  2 24  1  0
 24 25  2  0
 25 26  1  0
 26 27  2  0
 27 28  1  0
 28 29  1  0
 29 30  1  0
 30 31  1  0
 31 32  1  0
 32 33  1  0
 33 34  2  0
 28 35  2  0
 23  6  1  0
 35 24  1  0
 22 17  1  0
 33 29  1  0
M  END
>  <name>  (14) 
P103371

>  <alias>  (14) 
None

>  <smina_score_min>  (14) 
-8.067

>  <exports>  (14) 
['/opt/xchem-fragalysis-2/maxwin/BulkDock/OUTPUTS/openbind_xx01zvns2b_c2_elabs_1LOUTNY.sdf', '/opt/xchem-fragalysis-2/maxwin/BulkDock/OUTPUTS/openbind_xx01zvns2b_c2_elabs_1LSYIIV.sdf', '/opt/xchem-fragalysis-2/maxwin/openbind-hippo/xx01zvns2b/cycle_02/gnina/openbind_xx01zvns2b_c2_elabs_scored_6.2plus_products.sdf']

>  <tags>  (14) 
syndirella_placed,openbind_xx01zvns2b_c2_elabs,openbind_xx01zvns2b_c2_elabs_scored_6.2plus,syndirella_product,openbind_xx01zvns2b_c2_elabs_scored,openbind_xx01zvns2b_c2_elabs_scored_top80percent,BulkDock Fragalysis export,openbind_xx01zvns2b_c2_elabs_scored_top80percent_despaghettified

>  <subsites>  (14) 
1 - Z4590/B/203/1

>  <smiles>  (14) 
C[C@@H](NC(=O)c1cc(Cl)cc(NC(=O)OCc2ccccc2)c1)c1cccc(N2CCNC2=O)c1

>  <HIPPO Pose ID>  (14) 
103371

>  <energy_score>  (14) 
-21.691408

>  <inchikey>  (14) 
YDAAXFIUYQEADS-QGZVFWFLSA-N

>  <gnina_score_min>  (14) 
6.205

>  <gnina_score>  (14) 
5.956

>  <ref_mols>  (14) 
Z2992a

>  <HIPPO Compound ID>  (14) 
163030

>  <distance_score>  (14) 
1.210308

>  <rmsd(smina/fragmenstein)>  (14) 
1.174

>  <ref_pdb>  (14) 
Z2992a

>  <inspiration_score>  (14) 
None

$$$$
P103375
     RDKit          3D

 35 38  0  0  0  0  0  0  0  0999 V2000
   -7.6582    7.4255   -5.9466 C   0  0  0  0  0  0  0  0  0  0  0  0
   -7.6696    7.0462   -7.3246 O   0  0  0  0  0  0  0  0  0  0  0  0
   -8.4497    5.9903   -7.6548 C   0  0  0  0  0  0  0  0  0  0  0  0
   -9.1518    5.3240   -6.9136 O   0  0  0  0  0  0  0  0  0  0  0  0
   -8.2840    5.7129   -9.0984 C   0  0  0  0  0  0  0  0  0  0  0  0
   -8.0950    6.7479  -10.0290 C   0  0  0  0  0  0  0  0  0  0  0  0
   -7.8937    6.4711  -11.3962 C   0  0  0  0  0  0  0  0  0  0  0  0
   -7.8691    5.1570  -11.8605 C   0  0  0  0  0  0  0  0  0  0  0  0
   -7.6624    4.8593  -13.2031 N   0  0  0  0  0  0  0  0  0  0  0  0
   -7.2547    5.7674  -14.3779 C   0  0  0  0  0  0  0  0  0  0  0  0
   -6.9525    6.8941  -14.3935 O   0  0  0  0  0  0  0  0  0  0  0  0
   -7.3581    5.0756  -15.6872 C   0  0  0  0  0  0  0  0  0  0  0  0
   -8.6050    4.6323  -16.1335 C   0  0  0  0  0  0  0  0  0  0  0  0
   -8.7643    4.3253  -17.4832 C   0  0  0  0  0  0  0  0  0  0  0  0
  -10.3263    3.9794  -18.1062 Cl  0  0  0  0  0  0  0  0  0  0  0  0
   -7.6929    4.4143  -18.3697 C   0  0  0  0  0  0  0  0  0  0  0  0
   -6.4380    4.8047  -17.9052 C   0  0  0  0  0  0  0  0  0  0  0  0
   -5.3982    4.9010  -18.8219 N   0  0  0  0  0  0  0  0  0  0  0  0
   -3.9174    5.2150  -18.6147 C   0  0  0  0  0  0  0  0  0  0  0  0
   -3.3386    5.5199  -17.6540 O   0  0  0  0  0  0  0  0  0  0  0  0
   -3.3676    5.1258  -19.8555 O   0  0  0  0  0  0  0  0  0  0  0  0
   -1.9893    5.5083  -19.9576 C   0  0  0  0  0  0  0  0  0  0  0  0
   -1.9112    6.9835  -20.2702 C   0  0  0  0  0  0  0  0  0  0  0  0
   -1.8297    7.9285  -19.2370 C   0  0  0  0  0  0  0  0  0  0  0  0
   -1.8003    9.2938  -19.5241 C   0  0  0  0  0  0  0  0  0  0  0  0
   -1.8524    9.7287  -20.8468 C   0  0  0  0  0  0  0  0  0  0  0  0
   -1.9405    8.7992  -21.8821 C   0  0  0  0  0  0  0  0  0  0  0  0
   -1.9758    7.4332  -21.5957 C   0  0  0  0  0  0  0  0  0  0  0  0
   -6.2690    5.1427  -16.5636 C   0  0  0  0  0  0  0  0  0  0  0  0
   -8.0549    4.1610  -10.9215 C   0  0  0  0  0  0  0  0  0  0  0  0
   -8.2832    4.4105   -9.5634 C   0  0  0  0  0  0  0  0  0  0  0  0
   -8.4225    3.1231   -8.8232 C   0  0  0  0  0  0  0  0  0  0  0  0
   -8.0770    2.1721   -9.8417 N   0  0  0  0  0  0  0  0  0  0  0  0
   -7.9087    2.7212  -11.0890 C   0  0  0  0  0  0  0  0  0  0  0  0
   -7.6452    2.1701  -12.1409 O   0  0  0  0  0  0  0  0  0  0  0  0
  1  2  1  0
  2  3  1  0
  3  4  2  0
  3  5  1  0
  5  6  2  0
  6  7  1  0
  7  8  2  0
  8  9  1  0
  9 10  1  0
 10 11  2  0
 10 12  1  0
 12 13  2  0
 13 14  1  0
 14 15  1  0
 14 16  2  0
 16 17  1  0
 17 18  1  0
 18 19  1  0
 19 20  2  0
 19 21  1  0
 21 22  1  0
 22 23  1  0
 23 24  2  0
 24 25  1  0
 25 26  2  0
 26 27  1  0
 27 28  2  0
 17 29  2  0
  8 30  1  0
 30 31  2  0
 31 32  1  0
 32 33  1  0
 33 34  1  0
 34 35  2  0
 31  5  1  0
 29 12  1  0
 34 30  1  0
 28 23  1  0
M  END
>  <name>  (15) 
P103375

>  <alias>  (15) 
None

>  <smina_score_min>  (15) 
-8.192

>  <exports>  (15) 
['/opt/xchem-fragalysis-2/maxwin/BulkDock/OUTPUTS/openbind_xx01zvns2b_c2_elabs_1LOUTNY.sdf', '/opt/xchem-fragalysis-2/maxwin/BulkDock/OUTPUTS/openbind_xx01zvns2b_c2_elabs_1LSYIIV.sdf', '/opt/xchem-fragalysis-2/maxwin/openbind-hippo/xx01zvns2b/cycle_02/gnina/openbind_xx01zvns2b_c2_elabs_scored_6.2plus_products.sdf']

>  <tags>  (15) 
syndirella_placed,openbind_xx01zvns2b_c2_elabs,openbind_xx01zvns2b_c2_elabs_scored_6.2plus,syndirella_product,openbind_xx01zvns2b_c2_elabs_scored,openbind_xx01zvns2b_c2_elabs_scored_top80percent,BulkDock Fragalysis export,openbind_xx01zvns2b_c2_elabs_scored_top80percent_despaghettified

>  <subsites>  (15) 
1 - Z4590/B/203/1

>  <smiles>  (15) 
COC(=O)c1ccc(NC(=O)c2cc(Cl)cc(NC(=O)OCc3ccccc3)c2)c2c1CNC2=O

>  <HIPPO Pose ID>  (15) 
103375

>  <energy_score>  (15) 
-45.255502

>  <inchikey>  (15) 
JRWZUUDFBHILJB-UHFFFAOYSA-N

>  <gnina_score_min>  (15) 
6.24

>  <gnina_score>  (15) 
6.119

>  <ref_mols>  (15) 
Z2992a

>  <HIPPO Compound ID>  (15) 
163035

>  <distance_score>  (15) 
0.679392

>  <rmsd(smina/fragmenstein)>  (15) 
2.018

>  <ref_pdb>  (15) 
Z2992a

>  <inspiration_score>  (15) 
None

$$$$
P103384
     RDKit          3D

 36 39  0  0  0  0  0  0  0  0999 V2000
   -7.6071    8.7370  -12.2081 C   0  0  0  0  0  0  0  0  0  0  0  0
   -8.5106    7.5362  -12.2774 C   0  0  0  0  0  0  0  0  0  0  0  0
   -9.5266    7.4938  -12.9680 O   0  0  0  0  0  0  0  0  0  0  0  0
   -8.2189    6.3977  -11.3819 C   0  0  0  0  0  0  0  0  0  0  0  0
   -8.3509    6.6570   -9.9962 C   0  0  0  0  0  0  0  0  0  0  0  0
   -8.3840    5.6090   -9.0752 C   0  0  0  0  0  0  0  0  0  0  0  0
   -8.4615    6.0060   -7.2330 Br  0  0  0  0  0  0  0  0  0  0  0  0
   -8.3249    4.3264   -9.5692 C   0  0  0  0  0  0  0  0  0  0  0  0
   -8.1176    4.0848  -10.9235 C   0  0  0  0  0  0  0  0  0  0  0  0
   -8.0496    5.0925  -11.8706 C   0  0  0  0  0  0  0  0  0  0  0  0
   -7.8142    4.7822  -13.2136 N   0  0  0  0  0  0  0  0  0  0  0  0
   -7.2293    5.6433  -14.3546 C   0  0  0  0  0  0  0  0  0  0  0  0
   -6.7807    6.7213  -14.3356 O   0  0  0  0  0  0  0  0  0  0  0  0
   -7.3659    4.9990  -15.6871 C   0  0  0  0  0  0  0  0  0  0  0  0
   -8.6235    4.5884  -16.1356 C   0  0  0  0  0  0  0  0  0  0  0  0
   -8.7988    4.3136  -17.4907 C   0  0  0  0  0  0  0  0  0  0  0  0
  -10.3692    3.9942  -18.1061 Cl  0  0  0  0  0  0  0  0  0  0  0  0
   -7.7363    4.4126  -18.3862 C   0  0  0  0  0  0  0  0  0  0  0  0
   -6.4752    4.7863  -17.9270 C   0  0  0  0  0  0  0  0  0  0  0  0
   -5.4491    4.9228  -18.8549 N   0  0  0  0  0  0  0  0  0  0  0  0
   -3.9507    5.1434  -18.6535 C   0  0  0  0  0  0  0  0  0  0  0  0
   -3.3392    5.3237  -17.6817 O   0  0  0  0  0  0  0  0  0  0  0  0
   -3.4260    5.1173  -19.9075 O   0  0  0  0  0  0  0  0  0  0  0  0
   -2.0370    5.4573  -20.0145 C   0  0  0  0  0  0  0  0  0  0  0  0
   -1.9247    6.9385  -20.2856 C   0  0  0  0  0  0  0  0  0  0  0  0
   -1.8522    7.8544  -19.2259 C   0  0  0  0  0  0  0  0  0  0  0  0
   -1.7951    9.2263  -19.4762 C   0  0  0  0  0  0  0  0  0  0  0  0
   -1.8110    9.6968  -20.7877 C   0  0  0  0  0  0  0  0  0  0  0  0
   -1.8901    8.7965  -21.8492 C   0  0  0  0  0  0  0  0  0  0  0  0
   -1.9524    7.4242  -21.5999 C   0  0  0  0  0  0  0  0  0  0  0  0
   -6.2878    5.0824  -16.5779 C   0  0  0  0  0  0  0  0  0  0  0  0
   -7.8887    2.6546  -11.0675 C   0  0  0  0  0  0  0  0  0  0  0  0
   -7.6225    2.1131  -12.1238 O   0  0  0  0  0  0  0  0  0  0  0  0
   -8.0137    2.1204   -9.8222 N   0  0  0  0  0  0  0  0  0  0  0  0
   -8.4224    3.0291   -8.9044 C   0  0  0  0  0  0  0  0  0  0  0  0
   -8.8745    2.8428   -7.7943 O   0  0  0  0  0  0  0  0  0  0  0  0
  1  2  1  0
  2  3  2  0
  2  4  1  0
  4  5  2  0
  5  6  1  0
  6  7  1  0
  6  8  2  0
  8  9  1  0
  9 10  2  0
 10 11  1  0
 11 12  1  0
 12 13  2  0
 12 14  1  0
 14 15  2  0
 15 16  1  0
 16 17  1  0
 16 18  2  0
 18 19  1  0
 19 20  1  0
 20 21  1  0
 21 22  2  0
 21 23  1  0
 23 24  1  0
 24 25  1  0
 25 26  2  0
 26 27  1  0
 27 28  2  0
 28 29  1  0
 29 30  2  0
 19 31  2  0
  9 32  1  0
 32 33  2  0
 32 34  1  0
 34 35  1  0
 35 36  2  0
 10  4  1  0
 31 14  1  0
 35  8  1  0
 30 25  1  0
M  END
>  <name>  (16) 
P103384

>  <alias>  (16) 
None

>  <smina_score_min>  (16) 
-8.426

>  <exports>  (16) 
['/opt/xchem-fragalysis-2/maxwin/BulkDock/OUTPUTS/openbind_xx01zvns2b_c2_elabs_1LOUTNY.sdf', '/opt/xchem-fragalysis-2/maxwin/BulkDock/OUTPUTS/openbind_xx01zvns2b_c2_elabs_1LSYIIV.sdf', '/opt/xchem-fragalysis-2/maxwin/openbind-hippo/xx01zvns2b/cycle_02/gnina/openbind_xx01zvns2b_c2_elabs_scored_6.2plus_products.sdf']

>  <tags>  (16) 
syndirella_placed,openbind_xx01zvns2b_c2_elabs,openbind_xx01zvns2b_c2_elabs_scored_6.2plus,syndirella_product,openbind_xx01zvns2b_c2_elabs_scored,openbind_xx01zvns2b_c2_elabs_scored_top80percent,BulkDock Fragalysis export,openbind_xx01zvns2b_c2_elabs_scored_top80percent_despaghettified

>  <subsites>  (16) 
1 - Z4590/B/203/1

>  <smiles>  (16) 
CC(=O)c1cc(Br)c2c(c1NC(=O)c1cc(Cl)cc(NC(=O)OCc3ccccc3)c1)C(=O)NC2=O

>  <HIPPO Pose ID>  (16) 
103384

>  <energy_score>  (16) 
-44.832279

>  <inchikey>  (16) 
RIIQYVCTFVEOKI-UHFFFAOYSA-N

>  <gnina_score_min>  (16) 
6.542

>  <gnina_score>  (16) 
6.381

>  <ref_mols>  (16) 
Z2992a

>  <HIPPO Compound ID>  (16) 
163048

>  <distance_score>  (16) 
0.61055

>  <rmsd(smina/fragmenstein)>  (16) 
1.297

>  <ref_pdb>  (16) 
Z2992a

>  <inspiration_score>  (16) 
None

$$$$
P103390
     RDKit          3D

 36 39  0  0  0  0  0  0  0  0999 V2000
   -8.9949    3.9842   -5.7839 C   0  0  0  0  0  0  0  0  0  0  0  0
   -8.9003    3.9803   -7.2078 O   0  0  0  0  0  0  0  0  0  0  0  0
   -8.4156    5.1255   -7.7432 C   0  0  0  0  0  0  0  0  0  0  0  0
   -8.1427    6.1499   -7.1426 O   0  0  0  0  0  0  0  0  0  0  0  0
   -8.3003    4.9712   -9.2096 C   0  0  0  0  0  0  0  0  0  0  0  0
   -8.4642    6.0917  -10.0387 C   0  0  0  0  0  0  0  0  0  0  0  0
   -8.2771    5.9937  -11.4329 C   0  0  0  0  0  0  0  0  0  0  0  0
   -7.9401    4.7721  -12.0182 C   0  0  0  0  0  0  0  0  0  0  0  0
   -7.6955    4.6383  -13.3743 N   0  0  0  0  0  0  0  0  0  0  0  0
   -7.4330    5.6999  -14.4489 C   0  0  0  0  0  0  0  0  0  0  0  0
   -7.3037    6.8528  -14.3553 O   0  0  0  0  0  0  0  0  0  0  0  0
   -7.4557    5.0904  -15.7946 C   0  0  0  0  0  0  0  0  0  0  0  0
   -8.6837    4.6276  -16.2661 C   0  0  0  0  0  0  0  0  0  0  0  0
   -8.8107    4.3190  -17.6121 C   0  0  0  0  0  0  0  0  0  0  0  0
  -10.3612    3.9591  -18.2412 Cl  0  0  0  0  0  0  0  0  0  0  0  0
   -7.7181    4.4098  -18.4690 C   0  0  0  0  0  0  0  0  0  0  0  0
   -6.4766    4.8159  -17.9744 C   0  0  0  0  0  0  0  0  0  0  0  0
   -5.4118    4.8772  -18.8650 N   0  0  0  0  0  0  0  0  0  0  0  0
   -3.9394    5.2082  -18.6307 C   0  0  0  0  0  0  0  0  0  0  0  0
   -3.3598    5.4089  -17.6437 O   0  0  0  0  0  0  0  0  0  0  0  0
   -3.3840    5.1980  -19.8714 O   0  0  0  0  0  0  0  0  0  0  0  0
   -1.9975    5.5542  -19.9443 C   0  0  0  0  0  0  0  0  0  0  0  0
   -1.8991    7.0309  -20.2376 C   0  0  0  0  0  0  0  0  0  0  0  0
   -1.9028    7.4947  -21.5601 C   0  0  0  0  0  0  0  0  0  0  0  0
   -1.8524    8.8634  -21.8297 C   0  0  0  0  0  0  0  0  0  0  0  0
   -1.8088    9.7809  -20.7810 C   0  0  0  0  0  0  0  0  0  0  0  0
   -1.8170    9.3313  -19.4619 C   0  0  0  0  0  0  0  0  0  0  0  0
   -1.8631    7.9633  -19.1910 C   0  0  0  0  0  0  0  0  0  0  0  0
   -6.3434    5.1754  -16.6336 C   0  0  0  0  0  0  0  0  0  0  0  0
   -7.7775    3.6864  -11.1831 C   0  0  0  0  0  0  0  0  0  0  0  0
   -7.9155    3.7773   -9.7978 C   0  0  0  0  0  0  0  0  0  0  0  0
   -7.3684    2.5449   -9.1601 C   0  0  0  0  0  0  0  0  0  0  0  0
   -6.7168    1.9008  -10.2837 N   0  0  0  0  0  0  0  0  0  0  0  0
   -5.8083    0.7979  -10.1394 C   0  0  0  0  0  0  0  0  0  0  0  0
   -7.0923    2.4266  -11.4987 C   0  0  0  0  0  0  0  0  0  0  0  0
   -6.8489    2.0162  -12.6195 O   0  0  0  0  0  0  0  0  0  0  0  0
  1  2  1  0
  2  3  1  0
  3  4  2  0
  3  5  1  0
  5  6  2  0
  6  7  1  0
  7  8  2  0
  8  9  1  0
  9 10  1  0
 10 11  2  0
 10 12  1  0
 12 13  2  0
 13 14  1  0
 14 15  1  0
 14 16  2  0
 16 17  1  0
 17 18  1  0
 18 19  1  0
 19 20  2  0
 19 21  1  0
 21 22  1  0
 22 23  1  0
 23 24  2  0
 24 25  1  0
 25 26  2  0
 26 27  1  0
 27 28  2  0
 17 29  2  0
  8 30  1  0
 30 31  2  0
 31 32  1  0
 32 33  1  0
 33 34  1  0
 33 35  1  0
 35 36  2  0
 31  5  1  0
 29 12  1  0
 35 30  1  0
 28 23  1  0
M  END
>  <name>  (17) 
P103390

>  <alias>  (17) 
None

>  <smina_score_min>  (17) 
-7.933

>  <exports>  (17) 
['/opt/xchem-fragalysis-2/maxwin/BulkDock/OUTPUTS/openbind_xx01zvns2b_c2_elabs_1LOUTNY.sdf', '/opt/xchem-fragalysis-2/maxwin/BulkDock/OUTPUTS/openbind_xx01zvns2b_c2_elabs_1LSYIIV.sdf', '/opt/xchem-fragalysis-2/maxwin/openbind-hippo/xx01zvns2b/cycle_02/gnina/openbind_xx01zvns2b_c2_elabs_scored_6.2plus_products.sdf']

>  <tags>  (17) 
syndirella_placed,openbind_xx01zvns2b_c2_elabs,openbind_xx01zvns2b_c2_elabs_scored_6.2plus,syndirella_product,openbind_xx01zvns2b_c2_elabs_scored,openbind_xx01zvns2b_c2_elabs_scored_top80percent,BulkDock Fragalysis export,openbind_xx01zvns2b_c2_elabs_scored_top80percent_despaghettified

>  <subsites>  (17) 
1 - Z4590/B/203/1

>  <smiles>  (17) 
COC(=O)c1ccc(NC(=O)c2cc(Cl)cc(NC(=O)OCc3ccccc3)c2)c2c1CN(C)C2=O

>  <HIPPO Pose ID>  (17) 
103390

>  <energy_score>  (17) 
-31.461645

>  <inchikey>  (17) 
WGBWXJQDIWCOMU-UHFFFAOYSA-N

>  <gnina_score_min>  (17) 
6.362

>  <gnina_score>  (17) 
6.253

>  <ref_mols>  (17) 
Z2992a

>  <HIPPO Compound ID>  (17) 
163061

>  <distance_score>  (17) 
0.790785

>  <rmsd(smina/fragmenstein)>  (17) 
1.423

>  <ref_pdb>  (17) 
Z2992a

>  <inspiration_score>  (17) 
None

$$$$
P103395
     RDKit          3D

 36 39  0  0  0  0  0  0  0  0999 V2000
   -5.5538    5.1722   -6.3345 C   0  0  0  0  0  0  0  0  0  0  0  0
   -5.9926    4.9154   -7.7644 C   0  0  0  0  0  0  0  0  0  0  0  0
   -7.2954    5.4876   -7.9521 O   0  0  0  0  0  0  0  0  0  0  0  0
   -7.7036    5.2632   -9.2372 C   0  0  0  0  0  0  0  0  0  0  0  0
   -7.3517    6.2719  -10.1345 C   0  0  0  0  0  0  0  0  0  0  0  0
   -7.5178    6.0824  -11.4955 C   0  0  0  0  0  0  0  0  0  0  0  0
   -8.0503    4.8903  -11.9737 C   0  0  0  0  0  0  0  0  0  0  0  0
   -8.0452    4.6662  -13.3492 N   0  0  0  0  0  0  0  0  0  0  0  0
   -7.3475    5.4456  -14.4933 C   0  0  0  0  0  0  0  0  0  0  0  0
   -6.7328    6.4403  -14.4679 O   0  0  0  0  0  0  0  0  0  0  0  0
   -7.5524    4.8480  -15.8343 C   0  0  0  0  0  0  0  0  0  0  0  0
   -8.8290    4.5065  -16.2656 C   0  0  0  0  0  0  0  0  0  0  0  0
   -9.0398    4.2796  -17.6224 C   0  0  0  0  0  0  0  0  0  0  0  0
  -10.6397    4.0646  -18.1940 Cl  0  0  0  0  0  0  0  0  0  0  0  0
   -7.9927    4.3491  -18.5391 C   0  0  0  0  0  0  0  0  0  0  0  0
   -6.7076    4.6524  -18.0978 C   0  0  0  0  0  0  0  0  0  0  0  0
   -5.6827    4.7447  -19.0337 N   0  0  0  0  0  0  0  0  0  0  0  0
   -4.1950    5.0518  -18.8521 C   0  0  0  0  0  0  0  0  0  0  0  0
   -3.5686    5.2021  -17.8840 O   0  0  0  0  0  0  0  0  0  0  0  0
   -3.6915    5.1283  -20.1140 O   0  0  0  0  0  0  0  0  0  0  0  0
   -2.2899    5.4239  -20.2103 C   0  0  0  0  0  0  0  0  0  0  0  0
   -2.1083    6.9116  -20.3927 C   0  0  0  0  0  0  0  0  0  0  0  0
   -2.0904    7.4723  -21.6767 C   0  0  0  0  0  0  0  0  0  0  0  0
   -1.9504    8.8511  -21.8460 C   0  0  0  0  0  0  0  0  0  0  0  0
   -1.8373    9.6840  -20.7339 C   0  0  0  0  0  0  0  0  0  0  0  0
   -1.8654    9.1393  -19.4516 C   0  0  0  0  0  0  0  0  0  0  0  0
   -2.0007    7.7605  -19.2814 C   0  0  0  0  0  0  0  0  0  0  0  0
   -6.4861    4.8984  -16.7448 C   0  0  0  0  0  0  0  0  0  0  0  0
   -8.5259    3.9370  -11.0672 C   0  0  0  0  0  0  0  0  0  0  0  0
   -8.3782    4.1117   -9.6611 C   0  0  0  0  0  0  0  0  0  0  0  0
   -8.9653    3.0133   -8.7833 C   0  0  0  0  0  0  0  0  0  0  0  0
   -8.7420    2.9876   -7.3322 N   0  0  0  0  0  0  0  0  0  0  0  0
   -9.2781    1.7387   -6.7596 C   0  0  0  0  0  0  0  0  0  0  0  0
  -10.3955    2.1325   -5.8135 C   0  0  0  0  0  0  0  0  0  0  0  0
   -9.9519    3.4787   -5.3137 C   0  0  0  0  0  0  0  0  0  0  0  0
   -9.2942    4.0901   -6.5385 C   0  0  0  0  0  0  0  0  0  0  0  0
  1  2  1  0
  2  3  1  0
  3  4  1  0
  4  5  2  0
  5  6  1  0
  6  7  2  0
  7  8  1  0
  8  9  1  0
  9 10  2  0
  9 11  1  0
 11 12  2  0
 12 13  1  0
 13 14  1  0
 13 15  2  0
 15 16  1  0
 16 17  1  0
 17 18  1  0
 18 19  2  0
 18 20  1  0
 20 21  1  0
 21 22  1  0
 22 23  2  0
 23 24  1  0
 24 25  2  0
 25 26  1  0
 26 27  2  0
 16 28  2  0
  7 29  1  0
 29 30  2  0
 30 31  1  0
 31 32  1  0
 32 33  1  0
 33 34  1  0
 34 35  1  0
 35 36  1  0
 30  4  1  0
 36 32  1  0
 28 11  1  0
 27 22  1  0
M  END
>  <name>  (18) 
P103395

>  <alias>  (18) 
None

>  <smina_score_min>  (18) 
-7.304

>  <exports>  (18) 
['/opt/xchem-fragalysis-2/maxwin/BulkDock/OUTPUTS/openbind_xx01zvns2b_c2_elabs_1LOUTNY.sdf', '/opt/xchem-fragalysis-2/maxwin/BulkDock/OUTPUTS/openbind_xx01zvns2b_c2_elabs_1LSYIIV.sdf', '/opt/xchem-fragalysis-2/maxwin/openbind-hippo/xx01zvns2b/cycle_02/gnina/openbind_xx01zvns2b_c2_elabs_scored_6.2plus_products.sdf']

>  <tags>  (18) 
syndirella_placed,openbind_xx01zvns2b_c2_elabs,openbind_xx01zvns2b_c2_elabs_scored_6.2plus,syndirella_product,openbind_xx01zvns2b_c2_elabs_scored,openbind_xx01zvns2b_c2_elabs_scored_top80percent,BulkDock Fragalysis export,openbind_xx01zvns2b_c2_elabs_scored_top80percent_despaghettified

>  <subsites>  (18) 
1 - Z4590/B/203/1

>  <smiles>  (18) 
CCOc1ccc(NC(=O)c2cc(Cl)cc(NC(=O)OCc3ccccc3)c2)cc1CN1CCCC1

>  <HIPPO Pose ID>  (18) 
103395

>  <energy_score>  (18) 
-15.620405

>  <inchikey>  (18) 
JLNUWLBVKNZLBD-UHFFFAOYSA-N

>  <gnina_score_min>  (18) 
6.223

>  <gnina_score>  (18) 
6.135

>  <ref_mols>  (18) 
Z2992a

>  <HIPPO Compound ID>  (18) 
163065

>  <distance_score>  (18) 
0.534112

>  <rmsd(smina/fragmenstein)>  (18) 
1.088

>  <ref_pdb>  (18) 
Z2992a

>  <inspiration_score>  (18) 
None

$$$$
P103397
     RDKit          3D

 36 39  0  0  0  0  0  0  0  0999 V2000
   -3.5152    5.2315  -17.9800 O   0  0  0  0  0  0  0  0  0  0  0  0
   -4.1464    5.0992  -18.9472 C   0  0  0  0  0  0  0  0  0  0  0  0
   -5.6480    4.8733  -19.1285 N   0  0  0  0  0  0  0  0  0  0  0  0
   -6.6513    4.6736  -18.1881 C   0  0  0  0  0  0  0  0  0  0  0  0
   -7.9540    4.4459  -18.6350 C   0  0  0  0  0  0  0  0  0  0  0  0
   -8.9907    4.2871  -17.7193 C   0  0  0  0  0  0  0  0  0  0  0  0
  -10.6036    4.1326  -18.2679 Cl  0  0  0  0  0  0  0  0  0  0  0  0
   -8.7428    4.3280  -16.3579 C   0  0  0  0  0  0  0  0  0  0  0  0
   -7.4385    4.5494  -15.9236 C   0  0  0  0  0  0  0  0  0  0  0  0
   -7.1803    4.6311  -14.4781 C   0  0  0  0  0  0  0  0  0  0  0  0
   -6.5226    3.8203  -13.9592 O   0  0  0  0  0  0  0  0  0  0  0  0
   -7.9445    5.8357  -13.8799 N   0  0  0  0  0  0  0  0  0  0  0  0
   -8.1270    6.2206  -12.5609 C   0  0  0  0  0  0  0  0  0  0  0  0
   -8.8056    7.3974  -12.2585 C   0  0  0  0  0  0  0  0  0  0  0  0
   -9.0070    7.7775  -10.9253 C   0  0  0  0  0  0  0  0  0  0  0  0
   -8.5815    6.9569   -9.8897 C   0  0  0  0  0  0  0  0  0  0  0  0
   -7.9326    5.7731  -10.2082 C   0  0  0  0  0  0  0  0  0  0  0  0
   -7.4905    4.8816   -9.1273 C   0  0  0  0  0  0  0  0  0  0  0  0
   -7.0016    5.3287   -8.1715 O   0  0  0  0  0  0  0  0  0  0  0  0
   -7.6937    3.4244   -9.5498 N   0  0  0  0  0  0  0  0  0  0  0  0
   -7.2609    2.2203   -8.9410 C   0  0  0  0  0  0  0  0  0  0  0  0
   -5.8597    1.9843   -9.4271 C   0  0  0  0  0  0  0  0  0  0  0  0
   -4.7283    2.7513   -9.1979 C   0  0  0  0  0  0  0  0  0  0  0  0
   -3.5612    2.2125   -9.8099 C   0  0  0  0  0  0  0  0  0  0  0  0
   -3.8362    1.0522  -10.4950 C   0  0  0  0  0  0  0  0  0  0  0  0
   -5.4896    0.6378  -10.4110 S   0  0  0  0  0  0  0  0  0  0  0  0
   -7.6634    5.4205  -11.5340 C   0  0  0  0  0  0  0  0  0  0  0  0
   -6.3861    4.7149  -16.8223 C   0  0  0  0  0  0  0  0  0  0  0  0
   -3.6433    5.1695  -20.2094 O   0  0  0  0  0  0  0  0  0  0  0  0
   -2.2397    5.4558  -20.3027 C   0  0  0  0  0  0  0  0  0  0  0  0
   -2.0551    6.9475  -20.4481 C   0  0  0  0  0  0  0  0  0  0  0  0
   -1.9153    7.7655  -19.3173 C   0  0  0  0  0  0  0  0  0  0  0  0
   -1.7861    9.1487  -19.4532 C   0  0  0  0  0  0  0  0  0  0  0  0
   -1.7955    9.7284  -20.7203 C   0  0  0  0  0  0  0  0  0  0  0  0
   -1.9397    8.9262  -21.8512 C   0  0  0  0  0  0  0  0  0  0  0  0
   -2.0744    7.5432  -21.7160 C   0  0  0  0  0  0  0  0  0  0  0  0
  1  2  2  0
  2  3  1  0
  3  4  1  0
  4  5  2  0
  5  6  1  0
  6  7  1  0
  6  8  2  0
  8  9  1  0
  9 10  1  0
 10 11  2  0
 10 12  1  0
 12 13  1  0
 13 14  2  0
 14 15  1  0
 15 16  2  0
 16 17  1  0
 17 18  1  0
 18 19  2  0
 18 20  1  0
 20 21  1  0
 21 22  1  0
 22 23  2  0
 23 24  1  0
 24 25  2  0
 25 26  1  0
 17 27  2  0
  9 28  2  0
  2 29  1  0
 29 30  1  0
 30 31  1  0
 31 32  2  0
 32 33  1  0
 33 34  2  0
 34 35  1  0
 35 36  2  0
 28  4  1  0
 36 31  1  0
 27 13  1  0
 26 22  1  0
M  END
>  <name>  (19) 
P103397

>  <alias>  (19) 
None

>  <smina_score_min>  (19) 
-6.94

>  <exports>  (19) 
['/opt/xchem-fragalysis-2/maxwin/BulkDock/OUTPUTS/openbind_xx01zvns2b_c2_elabs_1LOUTNY.sdf', '/opt/xchem-fragalysis-2/maxwin/BulkDock/OUTPUTS/openbind_xx01zvns2b_c2_elabs_1LSYIIV.sdf', '/opt/xchem-fragalysis-2/maxwin/openbind-hippo/xx01zvns2b/cycle_02/gnina/openbind_xx01zvns2b_c2_elabs_scored_6.2plus_products.sdf']

>  <tags>  (19) 
syndirella_placed,openbind_xx01zvns2b_c2_elabs,openbind_xx01zvns2b_c2_elabs_scored_6.2plus,syndirella_product,openbind_xx01zvns2b_c2_elabs_scored,openbind_xx01zvns2b_c2_elabs_scored_top80percent,BulkDock Fragalysis export,openbind_xx01zvns2b_c2_elabs_scored_top80percent_despaghettified

>  <subsites>  (19) 
1 - Z4590/B/203/1

>  <smiles>  (19) 
O=C(Nc1cc(Cl)cc(C(=O)Nc2cccc(C(=O)NCc3cccs3)c2)c1)OCc1ccccc1

>  <HIPPO Pose ID>  (19) 
103397

>  <energy_score>  (19) 
-35.653913

>  <inchikey>  (19) 
SACUDFCGSJGYSF-UHFFFAOYSA-N

>  <gnina_score_min>  (19) 
6.266

>  <gnina_score>  (19) 
6.384

>  <ref_mols>  (19) 
Z2992a

>  <HIPPO Compound ID>  (19) 
163070

>  <distance_score>  (19) 
1.240777

>  <rmsd(smina/fragmenstein)>  (19) 
1.2

>  <ref_pdb>  (19) 
Z2992a

>  <inspiration_score>  (19) 
None

$$$$
P103400
     RDKit          3D

 36 38  0  0  0  0  0  0  0  0999 V2000
   -7.8707    8.2493  -12.4629 C   0  0  0  0  0  0  0  0  0  0  0  0
   -8.0067    6.9705  -11.6896 C   0  0  0  0  0  0  0  0  0  0  0  0
   -8.0598    7.0810  -10.2809 C   0  0  0  0  0  0  0  0  0  0  0  0
   -8.1560    5.9529   -9.4725 C   0  0  0  0  0  0  0  0  0  0  0  0
   -8.2475    4.7135  -10.0862 C   0  0  0  0  0  0  0  0  0  0  0  0
   -8.0275    3.4797   -9.3105 C   0  0  0  0  0  0  0  0  0  0  0  0
   -8.7642    3.2172   -8.4103 O   0  0  0  0  0  0  0  0  0  0  0  0
   -6.9050    2.7694   -9.8382 N   0  0  0  0  0  0  0  0  0  0  0  0
   -6.3691    1.4721   -9.5121 C   0  0  0  0  0  0  0  0  0  0  0  0
   -5.8065    0.6849  -10.6934 C   0  0  0  0  0  0  0  0  0  0  0  0
   -6.5582    0.7719  -11.8162 F   0  0  0  0  0  0  0  0  0  0  0  0
   -5.6536   -0.6229  -10.3690 F   0  0  0  0  0  0  0  0  0  0  0  0
   -4.5776    1.1699  -11.0123 F   0  0  0  0  0  0  0  0  0  0  0  0
   -8.3116    4.5874  -11.4734 C   0  0  0  0  0  0  0  0  0  0  0  0
   -8.0921    5.6972  -12.2792 C   0  0  0  0  0  0  0  0  0  0  0  0
   -7.9082    5.3738  -13.6232 N   0  0  0  0  0  0  0  0  0  0  0  0
   -7.1250    6.0024  -14.6420 C   0  0  0  0  0  0  0  0  0  0  0  0
   -6.4863    7.0145  -14.6259 O   0  0  0  0  0  0  0  0  0  0  0  0
   -7.2215    5.3003  -15.9577 C   0  0  0  0  0  0  0  0  0  0  0  0
   -8.4500    4.8016  -16.4009 C   0  0  0  0  0  0  0  0  0  0  0  0
   -8.5750    4.3760  -17.7173 C   0  0  0  0  0  0  0  0  0  0  0  0
  -10.1178    3.9046  -18.2907 Cl  0  0  0  0  0  0  0  0  0  0  0  0
   -7.4922    4.4202  -18.5886 C   0  0  0  0  0  0  0  0  0  0  0  0
   -6.2532    4.8740  -18.1364 C   0  0  0  0  0  0  0  0  0  0  0  0
   -5.2010    4.9039  -19.0468 N   0  0  0  0  0  0  0  0  0  0  0  0
   -3.8330    5.2180  -18.8757 C   0  0  0  0  0  0  0  0  0  0  0  0
   -3.2050    5.4641  -17.8911 O   0  0  0  0  0  0  0  0  0  0  0  0
   -3.2924    5.1668  -20.1232 O   0  0  0  0  0  0  0  0  0  0  0  0
   -1.9003    5.4969  -20.2250 C   0  0  0  0  0  0  0  0  0  0  0  0
   -1.7637    6.9767  -20.4883 C   0  0  0  0  0  0  0  0  0  0  0  0
   -1.8964    7.4816  -21.7891 C   0  0  0  0  0  0  0  0  0  0  0  0
   -1.8051    8.8538  -22.0284 C   0  0  0  0  0  0  0  0  0  0  0  0
   -1.5907    9.7347  -20.9694 C   0  0  0  0  0  0  0  0  0  0  0  0
   -1.4694    9.2448  -19.6704 C   0  0  0  0  0  0  0  0  0  0  0  0
   -1.5571    7.8728  -19.4304 C   0  0  0  0  0  0  0  0  0  0  0  0
   -6.1166    5.3158  -16.8198 C   0  0  0  0  0  0  0  0  0  0  0  0
  1  2  1  0
  2  3  2  0
  3  4  1  0
  4  5  2  0
  5  6  1  0
  6  7  2  0
  6  8  1  0
  8  9  1  0
  9 10  1  0
 10 11  1  0
 10 12  1  0
 10 13  1  0
  5 14  1  0
 14 15  2  0
 15 16  1  0
 16 17  1  0
 17 18  2  0
 17 19  1  0
 19 20  2  0
 20 21  1  0
 21 22  1  0
 21 23  2  0
 23 24  1  0
 24 25  1  0
 25 26  1  0
 26 27  2  0
 26 28  1  0
 28 29  1  0
 29 30  1  0
 30 31  2  0
 31 32  1  0
 32 33  2  0
 33 34  1  0
 34 35  2  0
 24 36  2  0
 15  2  1  0
 36 19  1  0
 35 30  1  0
M  END
>  <name>  (20) 
P103400

>  <alias>  (20) 
None

>  <smina_score_min>  (20) 
-7.157

>  <exports>  (20) 
['/opt/xchem-fragalysis-2/maxwin/BulkDock/OUTPUTS/openbind_xx01zvns2b_c2_elabs_1LOUTNY.sdf', '/opt/xchem-fragalysis-2/maxwin/BulkDock/OUTPUTS/openbind_xx01zvns2b_c2_elabs_1LSYIIV.sdf', '/opt/xchem-fragalysis-2/maxwin/openbind-hippo/xx01zvns2b/cycle_02/gnina/openbind_xx01zvns2b_c2_elabs_scored_6.2plus_products.sdf']

>  <tags>  (20) 
syndirella_placed,openbind_xx01zvns2b_c2_elabs,openbind_xx01zvns2b_c2_elabs_scored_6.2plus,syndirella_product,openbind_xx01zvns2b_c2_elabs_scored,openbind_xx01zvns2b_c2_elabs_scored_top80percent,BulkDock Fragalysis export,openbind_xx01zvns2b_c2_elabs_scored_top80percent_despaghettified

>  <subsites>  (20) 
1 - Z4590/B/203/1

>  <smiles>  (20) 
Cc1ccc(C(=O)NCC(F)(F)F)cc1NC(=O)c1cc(Cl)cc(NC(=O)OCc2ccccc2)c1

>  <HIPPO Pose ID>  (20) 
103400

>  <energy_score>  (20) 
-24.188221

>  <inchikey>  (20) 
VJIINWVEDFZUNV-UHFFFAOYSA-N

>  <gnina_score_min>  (20) 
6.306

>  <gnina_score>  (20) 
6.134

>  <ref_mols>  (20) 
Z2992a

>  <HIPPO Compound ID>  (20) 
163076

>  <distance_score>  (20) 
0.948893

>  <rmsd(smina/fragmenstein)>  (20) 
1.456

>  <ref_pdb>  (20) 
Z2992a

>  <inspiration_score>  (20) 
None

$$$$
P103403
     RDKit          3D

 36 39  0  0  0  0  0  0  0  0999 V2000
   -6.8461    2.1867  -12.0239 C   0  0  0  0  0  0  0  0  0  0  0  0
   -6.8585    3.6945  -12.2061 C   0  0  1  0  0  0  0  0  0  0  0  0
   -7.2417    3.9760  -13.5699 N   0  0  0  0  0  0  0  0  0  0  0  0
   -6.8348    5.1211  -14.5017 C   0  0  0  0  0  0  0  0  0  0  0  0
   -6.1861    6.0652  -14.2982 O   0  0  0  0  0  0  0  0  0  0  0  0
   -7.2962    4.8738  -15.8917 C   0  0  0  0  0  0  0  0  0  0  0  0
   -8.6068    4.5392  -16.2249 C   0  0  0  0  0  0  0  0  0  0  0  0
   -8.9217    4.3562  -17.5727 C   0  0  0  0  0  0  0  0  0  0  0  0
  -10.5432    4.0703  -18.0555 Cl  0  0  0  0  0  0  0  0  0  0  0  0
   -7.9505    4.4751  -18.5680 C   0  0  0  0  0  0  0  0  0  0  0  0
   -6.6413    4.7861  -18.2232 C   0  0  0  0  0  0  0  0  0  0  0  0
   -5.6793    4.9019  -19.2179 N   0  0  0  0  0  0  0  0  0  0  0  0
   -4.1623    5.0737  -19.1189 C   0  0  0  0  0  0  0  0  0  0  0  0
   -3.4620    5.0694  -18.1908 O   0  0  0  0  0  0  0  0  0  0  0  0
   -3.7304    5.2271  -20.4003 O   0  0  0  0  0  0  0  0  0  0  0  0
   -2.3235    5.4763  -20.5458 C   0  0  0  0  0  0  0  0  0  0  0  0
   -2.0957    6.9688  -20.5900 C   0  0  0  0  0  0  0  0  0  0  0  0
   -1.9368    7.7068  -19.4074 C   0  0  0  0  0  0  0  0  0  0  0  0
   -1.7736    9.0924  -19.4512 C   0  0  0  0  0  0  0  0  0  0  0  0
   -1.7649    9.7545  -20.6770 C   0  0  0  0  0  0  0  0  0  0  0  0
   -1.9245    9.0323  -21.8585 C   0  0  0  0  0  0  0  0  0  0  0  0
   -2.0948    7.6474  -21.8154 C   0  0  0  0  0  0  0  0  0  0  0  0
   -6.3162    4.9877  -16.8867 C   0  0  0  0  0  0  0  0  0  0  0  0
   -7.6219    4.4393  -11.1313 C   0  0  0  0  0  0  0  0  0  0  0  0
   -7.6003    5.8360  -11.0929 C   0  0  0  0  0  0  0  0  0  0  0  0
   -8.1010    6.5113   -9.9886 C   0  0  0  0  0  0  0  0  0  0  0  0
   -8.5973    5.8000   -8.8998 C   0  0  0  0  0  0  0  0  0  0  0  0
   -8.6323    4.4074   -8.8959 C   0  0  0  0  0  0  0  0  0  0  0  0
   -9.2116    3.6906   -7.8000 N   0  0  0  0  0  0  0  0  0  0  0  0
   -9.2786    2.2113   -7.7721 C   0  0  0  0  0  0  0  0  0  0  0  0
   -9.8898    1.8631   -6.4204 C   0  0  0  0  0  0  0  0  0  0  0  0
   -9.1931    2.7665   -5.4252 C   0  0  0  0  0  0  0  0  0  0  0  0
   -9.1473    4.3407   -6.2207 S   0  0  0  0  0  0  0  0  0  0  0  0
  -10.3928    5.0321   -5.9471 O   0  0  0  0  0  0  0  0  0  0  0  0
   -7.8618    4.9527   -5.9567 O   0  0  0  0  0  0  0  0  0  0  0  0
   -8.1981    3.7485  -10.0425 C   0  0  0  0  0  0  0  0  0  0  0  0
  2  1  1  1
  2  3  1  0
  3  4  1  0
  4  5  2  0
  4  6  1  0
  6  7  2  0
  7  8  1  0
  8  9  1  0
  8 10  2  0
 10 11  1  0
 11 12  1  0
 12 13  1  0
 13 14  2  0
 13 15  1  0
 15 16  1  0
 16 17  1  0
 17 18  2  0
 18 19  1  0
 19 20  2  0
 20 21  1  0
 21 22  2  0
 11 23  2  0
  2 24  1  0
 24 25  2  0
 25 26  1  0
 26 27  2  0
 27 28  1  0
 28 29  1  0
 29 30  1  0
 30 31  1  0
 31 32  1  0
 32 33  1  0
 33 34  2  0
 33 35  2  0
 28 36  2  0
 23  6  1  0
 36 24  1  0
 22 17  1  0
 33 29  1  0
M  END
>  <name>  (21) 
P103403

>  <alias>  (21) 
None

>  <smina_score_min>  (21) 
-7.93

>  <exports>  (21) 
['/opt/xchem-fragalysis-2/maxwin/BulkDock/OUTPUTS/openbind_xx01zvns2b_c2_elabs_1LOUTNY.sdf', '/opt/xchem-fragalysis-2/maxwin/BulkDock/OUTPUTS/openbind_xx01zvns2b_c2_elabs_1LSYIIV.sdf', '/opt/xchem-fragalysis-2/maxwin/openbind-hippo/xx01zvns2b/cycle_02/gnina/openbind_xx01zvns2b_c2_elabs_scored_6.2plus_products.sdf']

>  <tags>  (21) 
syndirella_placed,openbind_xx01zvns2b_c2_elabs,openbind_xx01zvns2b_c2_elabs_scored_6.2plus,syndirella_product,openbind_xx01zvns2b_c2_elabs_scored,openbind_xx01zvns2b_c2_elabs_scored_top80percent,BulkDock Fragalysis export,openbind_xx01zvns2b_c2_elabs_scored_top80percent_despaghettified

>  <subsites>  (21) 
1 - Z4590/B/203/1

>  <smiles>  (21) 
C[C@@H](NC(=O)c1cc(Cl)cc(NC(=O)OCc2ccccc2)c1)c1cccc(N2CCCS2(=O)=O)c1

>  <HIPPO Pose ID>  (21) 
103403

>  <energy_score>  (21) 
-28.076807

>  <inchikey>  (21) 
JFMKGMUEYAWGHB-GOSISDBHSA-N

>  <gnina_score_min>  (21) 
6.326

>  <gnina_score>  (21) 
6.239

>  <ref_mols>  (21) 
Z2992a

>  <HIPPO Compound ID>  (21) 
163081

>  <distance_score>  (21) 
1.08512

>  <rmsd(smina/fragmenstein)>  (21) 
1.085

>  <ref_pdb>  (21) 
Z2992a

>  <inspiration_score>  (21) 
None

$$$$
P103413
     RDKit          3D

 37 39  0  0  0  0  0  0  0  0999 V2000
   -8.3653    6.0966   -7.7767 C   0  0  0  0  0  0  0  0  0  0  0  0
   -8.2387    5.5382   -9.1641 C   0  0  0  0  0  0  0  0  0  0  0  0
   -7.8593    6.4621  -10.1445 C   0  0  0  0  0  0  0  0  0  0  0  0
   -7.7261    6.0829  -11.4684 C   0  0  0  0  0  0  0  0  0  0  0  0
   -7.9913    4.7761  -11.8639 C   0  0  0  0  0  0  0  0  0  0  0  0
   -7.8621    4.4815  -13.2233 N   0  0  0  0  0  0  0  0  0  0  0  0
   -7.2594    5.3192  -14.3834 C   0  0  0  0  0  0  0  0  0  0  0  0
   -6.7088    6.3521  -14.3668 O   0  0  0  0  0  0  0  0  0  0  0  0
   -7.4711    4.7445  -15.7332 C   0  0  0  0  0  0  0  0  0  0  0  0
   -8.7526    4.4163  -16.1679 C   0  0  0  0  0  0  0  0  0  0  0  0
   -8.9727    4.2495  -17.5344 C   0  0  0  0  0  0  0  0  0  0  0  0
  -10.5706    4.0438  -18.1224 Cl  0  0  0  0  0  0  0  0  0  0  0  0
   -7.9342    4.3726  -18.4565 C   0  0  0  0  0  0  0  0  0  0  0  0
   -6.6503    4.6762  -18.0152 C   0  0  0  0  0  0  0  0  0  0  0  0
   -5.6470    4.8694  -18.9585 N   0  0  0  0  0  0  0  0  0  0  0  0
   -4.1371    5.0374  -18.7835 C   0  0  0  0  0  0  0  0  0  0  0  0
   -3.4943    5.1183  -17.8181 O   0  0  0  0  0  0  0  0  0  0  0  0
   -3.6421    5.1042  -20.0487 O   0  0  0  0  0  0  0  0  0  0  0  0
   -2.2389    5.3841  -20.1600 C   0  0  0  0  0  0  0  0  0  0  0  0
   -2.0577    6.8706  -20.3573 C   0  0  0  0  0  0  0  0  0  0  0  0
   -1.9642    7.7316  -19.2539 C   0  0  0  0  0  0  0  0  0  0  0  0
   -1.8390    9.1098  -19.4373 C   0  0  0  0  0  0  0  0  0  0  0  0
   -1.8070    9.6418  -20.7249 C   0  0  0  0  0  0  0  0  0  0  0  0
   -1.9056    8.7968  -21.8293 C   0  0  0  0  0  0  0  0  0  0  0  0
   -2.0356    7.4186  -21.6469 C   0  0  0  0  0  0  0  0  0  0  0  0
   -6.4169    4.8578  -16.6544 C   0  0  0  0  0  0  0  0  0  0  0  0
   -8.3676    3.8310  -10.8998 C   0  0  0  0  0  0  0  0  0  0  0  0
   -8.4536    4.1818   -9.5193 C   0  0  0  0  0  0  0  0  0  0  0  0
   -8.8438    3.0921   -8.5178 C   0  0  0  0  0  0  0  0  0  0  0  0
   -8.1997    3.2015   -7.2313 N   0  0  0  0  0  0  0  0  0  0  0  0
   -8.7331    3.7076   -5.8955 C   0  0  0  0  0  0  0  0  0  0  0  0
   -9.8008    4.0484   -5.5910 O   0  0  0  0  0  0  0  0  0  0  0  0
   -7.6408    3.7861   -5.0743 O   0  0  0  0  0  0  0  0  0  0  0  0
   -7.6914    4.5812   -3.8584 C   0  0  0  0  0  0  0  0  0  0  0  0
   -6.2538    4.5829   -3.3151 C   0  0  0  0  0  0  0  0  0  0  0  0
   -8.6390    3.9870   -2.8133 C   0  0  0  0  0  0  0  0  0  0  0  0
   -8.0552    6.0407   -4.1536 C   0  0  0  0  0  0  0  0  0  0  0  0
  1  2  1  0
  2  3  2  0
  3  4  1  0
  4  5  2  0
  5  6  1  0
  6  7  1  0
  7  8  2  0
  7  9  1  0
  9 10  2  0
 10 11  1  0
 11 12  1  0
 11 13  2  0
 13 14  1  0
 14 15  1  0
 15 16  1  0
 16 17  2  0
 16 18  1  0
 18 19  1  0
 19 20  1  0
 20 21  2  0
 21 22  1  0
 22 23  2  0
 23 24  1  0
 24 25  2  0
 14 26  2  0
  5 27  1  0
 27 28  2  0
 28 29  1  0
 29 30  1  0
 30 31  1  0
 31 32  2  0
 31 33  1  0
 33 34  1  0
 34 35  1  0
 34 36  1  0
 34 37  1  0
 28  2  1  0
 26  9  1  0
 25 20  1  0
M  END
>  <name>  (22) 
P103413

>  <alias>  (22) 
None

>  <smina_score_min>  (22) 
-8.027

>  <exports>  (22) 
['/opt/xchem-fragalysis-2/maxwin/BulkDock/OUTPUTS/openbind_xx01zvns2b_c2_elabs_1LOUTNY.sdf', '/opt/xchem-fragalysis-2/maxwin/BulkDock/OUTPUTS/openbind_xx01zvns2b_c2_elabs_1LSYIIV.sdf', '/opt/xchem-fragalysis-2/maxwin/openbind-hippo/xx01zvns2b/cycle_02/gnina/openbind_xx01zvns2b_c2_elabs_scored_6.2plus_products.sdf']

>  <tags>  (22) 
syndirella_placed,openbind_xx01zvns2b_c2_elabs,openbind_xx01zvns2b_c2_elabs_scored_6.2plus,syndirella_product,openbind_xx01zvns2b_c2_elabs_scored,openbind_xx01zvns2b_c2_elabs_scored_top80percent,BulkDock Fragalysis export,openbind_xx01zvns2b_c2_elabs_scored_top80percent_despaghettified

>  <subsites>  (22) 
1 - Z4590/B/203/1

>  <smiles>  (22) 
Cc1ccc(NC(=O)c2cc(Cl)cc(NC(=O)OCc3ccccc3)c2)cc1CNC(=O)OC(C)(C)C

>  <HIPPO Pose ID>  (22) 
103413

>  <energy_score>  (22) 
-8.118615

>  <inchikey>  (22) 
NKMSIAKXPMRLNW-UHFFFAOYSA-N

>  <gnina_score_min>  (22) 
6.266

>  <gnina_score>  (22) 
6.052

>  <ref_mols>  (22) 
Z2992a

>  <HIPPO Compound ID>  (22) 
163099

>  <distance_score>  (22) 
0.524262

>  <rmsd(smina/fragmenstein)>  (22) 
1.165

>  <ref_pdb>  (22) 
Z2992a

>  <inspiration_score>  (22) 
None

$$$$
P103419
     RDKit          3D

 37 40  0  0  0  0  0  0  0  0999 V2000
   -3.4942    4.9968  -18.2441 O   0  0  0  0  0  0  0  0  0  0  0  0
   -4.1742    4.9747  -19.1874 C   0  0  0  0  0  0  0  0  0  0  0  0
   -5.6845    4.7613  -19.3176 N   0  0  0  0  0  0  0  0  0  0  0  0
   -6.6649    4.6277  -18.3424 C   0  0  0  0  0  0  0  0  0  0  0  0
   -7.9722    4.3208  -18.7082 C   0  0  0  0  0  0  0  0  0  0  0  0
   -8.9686    4.2646  -17.7334 C   0  0  0  0  0  0  0  0  0  0  0  0
  -10.6015    4.0602  -18.2085 Cl  0  0  0  0  0  0  0  0  0  0  0  0
   -8.6830    4.5035  -16.3927 C   0  0  0  0  0  0  0  0  0  0  0  0
   -7.3772    4.8326  -16.0423 C   0  0  0  0  0  0  0  0  0  0  0  0
   -7.0862    5.4691  -14.7431 C   0  0  0  0  0  0  0  0  0  0  0  0
   -6.5170    6.4884  -14.7887 O   0  0  0  0  0  0  0  0  0  0  0  0
   -7.6845    4.7094  -13.5386 N   0  0  0  0  0  0  0  0  0  0  0  0
   -7.7877    5.0746  -12.2042 C   0  0  0  0  0  0  0  0  0  0  0  0
   -7.3213    6.3276  -11.8263 C   0  0  0  0  0  0  0  0  0  0  0  0
   -7.4347    6.7518  -10.5158 C   0  0  0  0  0  0  0  0  0  0  0  0
   -7.9991    5.9211   -9.5498 C   0  0  0  0  0  0  0  0  0  0  0  0
   -8.0415    6.6673   -7.9937 Cl  0  0  0  0  0  0  0  0  0  0  0  0
   -8.4608    4.6362   -9.8954 C   0  0  0  0  0  0  0  0  0  0  0  0
   -9.0822    3.6117   -8.9676 C   0  0  0  0  0  0  0  0  0  0  0  0
   -9.3476    2.5795   -9.4328 O   0  0  0  0  0  0  0  0  0  0  0  0
   -9.2446    4.1260   -7.5331 N   0  0  0  0  0  0  0  0  0  0  0  0
   -9.8550    3.5138   -6.3849 C   0  0  0  0  0  0  0  0  0  0  0  0
  -10.3116    4.5449   -5.3647 C   0  0  0  0  0  0  0  0  0  0  0  0
   -9.1562    5.3720   -4.7807 C   0  0  0  0  0  0  0  0  0  0  0  0
   -7.8123    4.6607   -4.7911 C   0  0  0  0  0  0  0  0  0  0  0  0
   -8.0193    3.1752   -4.6381 C   0  0  0  0  0  0  0  0  0  0  0  0
   -8.8905    2.5458   -5.7407 C   0  0  0  0  0  0  0  0  0  0  0  0
   -8.3566    4.2333  -11.2528 C   0  0  0  0  0  0  0  0  0  0  0  0
   -6.3656    4.8712  -17.0068 C   0  0  0  0  0  0  0  0  0  0  0  0
   -3.7191    5.1394  -20.4595 O   0  0  0  0  0  0  0  0  0  0  0  0
   -2.3146    5.4175  -20.5759 C   0  0  0  0  0  0  0  0  0  0  0  0
   -2.1077    6.9141  -20.6042 C   0  0  0  0  0  0  0  0  0  0  0  0
   -2.1056    7.6038  -21.8235 C   0  0  0  0  0  0  0  0  0  0  0  0
   -1.9478    8.9907  -21.8539 C   0  0  0  0  0  0  0  0  0  0  0  0
   -1.8019    9.7042  -20.6654 C   0  0  0  0  0  0  0  0  0  0  0  0
   -1.8132    9.0315  -19.4453 C   0  0  0  0  0  0  0  0  0  0  0  0
   -1.9643    7.6439  -19.4145 C   0  0  0  0  0  0  0  0  0  0  0  0
  1  2  2  0
  2  3  1  0
  3  4  1  0
  4  5  2  0
  5  6  1  0
  6  7  1  0
  6  8  2  0
  8  9  1  0
  9 10  1  0
 10 11  2  0
 10 12  1  0
 12 13  1  0
 13 14  2  0
 14 15  1  0
 15 16  2  0
 16 17  1  0
 16 18  1  0
 18 19  1  0
 19 20  2  0
 19 21  1  0
 21 22  1  0
 22 23  1  0
 23 24  1  0
 24 25  1  0
 25 26  1  0
 26 27  1  0
 18 28  2  0
  9 29  2  0
  2 30  1  0
 30 31  1  0
 31 32  1  0
 32 33  2  0
 33 34  1  0
 34 35  2  0
 35 36  1  0
 36 37  2  0
 29  4  1  0
 37 32  1  0
 28 13  1  0
 27 22  1  0
M  END
>  <name>  (23) 
P103419

>  <alias>  (23) 
None

>  <smina_score_min>  (23) 
-6.876

>  <exports>  (23) 
['/opt/xchem-fragalysis-2/maxwin/BulkDock/OUTPUTS/openbind_xx01zvns2b_c2_elabs_1LOUTNY.sdf', '/opt/xchem-fragalysis-2/maxwin/BulkDock/OUTPUTS/openbind_xx01zvns2b_c2_elabs_1LSYIIV.sdf', '/opt/xchem-fragalysis-2/maxwin/openbind-hippo/xx01zvns2b/cycle_02/gnina/openbind_xx01zvns2b_c2_elabs_scored_6.2plus_products.sdf']

>  <tags>  (23) 
syndirella_placed,openbind_xx01zvns2b_c2_elabs,openbind_xx01zvns2b_c2_elabs_scored_6.2plus,syndirella_product,openbind_xx01zvns2b_c2_elabs_scored,openbind_xx01zvns2b_c2_elabs_scored_top80percent,BulkDock Fragalysis export,openbind_xx01zvns2b_c2_elabs_scored_top80percent_despaghettified

>  <subsites>  (23) 
1 - Z4590/B/203/1

>  <smiles>  (23) 
O=C(Nc1cc(Cl)cc(C(=O)Nc2ccc(Cl)c(C(=O)NC3CCCCC3)c2)c1)OCc1ccccc1

>  <HIPPO Pose ID>  (23) 
103419

>  <energy_score>  (23) 
-21.883786

>  <inchikey>  (23) 
CNAFNIYTSAZCDQ-UHFFFAOYSA-N

>  <gnina_score_min>  (23) 
6.268

>  <gnina_score>  (23) 
6.253

>  <ref_mols>  (23) 
Z2992a

>  <HIPPO Compound ID>  (23) 
163107

>  <distance_score>  (23) 
0.823552

>  <rmsd(smina/fragmenstein)>  (23) 
1.168

>  <ref_pdb>  (23) 
Z2992a

>  <inspiration_score>  (23) 
None

$$$$
P103422
     RDKit          3D

 37 40  0  0  0  0  0  0  0  0999 V2000
   -9.5257    1.4118   -7.6965 C   0  0  0  0  0  0  0  0  0  0  0  0
   -9.0231    2.4888   -8.4799 N   0  0  0  0  0  0  0  0  0  0  0  0
   -9.0296    3.9911   -8.2196 C   0  0  0  0  0  0  0  0  0  0  0  0
   -9.3775    4.5939   -7.2872 O   0  0  0  0  0  0  0  0  0  0  0  0
   -8.4536    4.7946   -9.3513 C   0  0  0  0  0  0  0  0  0  0  0  0
   -7.9440    6.0277   -8.9476 C   0  0  0  0  0  0  0  0  0  0  0  0
   -7.4898    6.9400   -9.8778 C   0  0  0  0  0  0  0  0  0  0  0  0
   -7.4936    6.6526  -11.2485 C   0  0  0  0  0  0  0  0  0  0  0  0
   -7.1464    7.6891  -12.1282 N   0  0  0  0  0  0  0  0  0  0  0  0
   -8.2670    8.5828  -12.4511 C   0  0  0  0  0  0  0  0  0  0  0  0
   -7.8224    9.7588  -13.3225 C   0  0  0  0  0  0  0  0  0  0  0  0
   -6.7208   10.9198  -12.4419 S   0  0  0  0  0  0  0  0  0  0  0  0
   -5.8340    9.7151  -11.3876 C   0  0  0  0  0  0  0  0  0  0  0  0
   -5.8079    8.2913  -11.9536 C   0  0  0  0  0  0  0  0  0  0  0  0
   -7.9480    5.3758  -11.6802 C   0  0  0  0  0  0  0  0  0  0  0  0
   -7.8873    4.9570  -13.0338 N   0  0  0  0  0  0  0  0  0  0  0  0
   -7.0939    5.5428  -14.2385 C   0  0  0  0  0  0  0  0  0  0  0  0
   -6.3102    6.4127  -14.2805 O   0  0  0  0  0  0  0  0  0  0  0  0
   -7.3725    4.9094  -15.5614 C   0  0  0  0  0  0  0  0  0  0  0  0
   -8.6521    4.5919  -16.0140 C   0  0  0  0  0  0  0  0  0  0  0  0
   -8.8375    4.3191  -17.3762 C   0  0  0  0  0  0  0  0  0  0  0  0
  -10.4183    4.0727  -18.0078 Cl  0  0  0  0  0  0  0  0  0  0  0  0
   -7.7720    4.3485  -18.2780 C   0  0  0  0  0  0  0  0  0  0  0  0
   -6.4920    4.6273  -17.8170 C   0  0  0  0  0  0  0  0  0  0  0  0
   -5.4390    4.6919  -18.7215 N   0  0  0  0  0  0  0  0  0  0  0  0
   -3.9424    4.9669  -18.4952 C   0  0  0  0  0  0  0  0  0  0  0  0
   -3.3413    5.1068  -17.5073 O   0  0  0  0  0  0  0  0  0  0  0  0
   -3.3053    5.0201  -19.6981 O   0  0  0  0  0  0  0  0  0  0  0  0
   -3.7413    6.0330  -20.6113 C   0  0  0  0  0  0  0  0  0  0  0  0
   -2.8317    7.2385  -20.5801 C   0  0  0  0  0  0  0  0  0  0  0  0
   -2.6753    7.9958  -19.4087 C   0  0  0  0  0  0  0  0  0  0  0  0
   -1.9135    9.1650  -19.4146 C   0  0  0  0  0  0  0  0  0  0  0  0
   -1.3003    9.5907  -20.5901 C   0  0  0  0  0  0  0  0  0  0  0  0
   -1.4330    8.8387  -21.7555 C   0  0  0  0  0  0  0  0  0  0  0  0
   -2.1915    7.6672  -21.7506 C   0  0  0  0  0  0  0  0  0  0  0  0
   -6.2953    4.8942  -16.4664 C   0  0  0  0  0  0  0  0  0  0  0  0
   -8.4615    4.4644  -10.7233 C   0  0  0  0  0  0  0  0  0  0  0  0
  1  2  1  0
  2  3  1  0
  3  4  2  0
  3  5  1  0
  5  6  2  0
  6  7  1  0
  7  8  2  0
  8  9  1  0
  9 10  1  0
 10 11  1  0
 11 12  1  0
 12 13  1  0
 13 14  1  0
  8 15  1  0
 15 16  1  0
 16 17  1  0
 17 18  2  0
 17 19  1  0
 19 20  2  0
 20 21  1  0
 21 22  1  0
 21 23  2  0
 23 24  1  0
 24 25  1  0
 25 26  1  0
 26 27  2  0
 26 28  1  0
 28 29  1  0
 29 30  1  0
 30 31  2  0
 31 32  1  0
 32 33  2  0
 33 34  1  0
 34 35  2  0
 24 36  2  0
 15 37  2  0
 37  5  1  0
 14  9  1  0
 36 19  1  0
 35 30  1  0
M  END
>  <name>  (24) 
P103422

>  <alias>  (24) 
None

>  <smina_score_min>  (24) 
-7.734

>  <exports>  (24) 
['/opt/xchem-fragalysis-2/maxwin/BulkDock/OUTPUTS/openbind_xx01zvns2b_c2_elabs_1LOUTNY.sdf', '/opt/xchem-fragalysis-2/maxwin/BulkDock/OUTPUTS/openbind_xx01zvns2b_c2_elabs_1LSYIIV.sdf', '/opt/xchem-fragalysis-2/maxwin/openbind-hippo/xx01zvns2b/cycle_02/gnina/openbind_xx01zvns2b_c2_elabs_scored_6.2plus_products.sdf']

>  <tags>  (24) 
syndirella_placed,openbind_xx01zvns2b_c2_elabs,openbind_xx01zvns2b_c2_elabs_scored_6.2plus,syndirella_product,openbind_xx01zvns2b_c2_elabs_scored,openbind_xx01zvns2b_c2_elabs_scored_top80percent,BulkDock Fragalysis export,openbind_xx01zvns2b_c2_elabs_scored_top80percent_despaghettified

>  <subsites>  (24) 
1 - Z4590/B/203/1

>  <smiles>  (24) 
CNC(=O)c1ccc(N2CCSCC2)c(NC(=O)c2cc(Cl)cc(NC(=O)OCc3ccccc3)c2)c1

>  <HIPPO Pose ID>  (24) 
103422

>  <energy_score>  (24) 
-1.157086

>  <inchikey>  (24) 
FMGKTPZQVKOWMI-UHFFFAOYSA-N

>  <gnina_score_min>  (24) 
6.401

>  <gnina_score>  (24) 
6.38

>  <ref_mols>  (24) 
Z2992a

>  <HIPPO Compound ID>  (24) 
163121

>  <distance_score>  (24) 
0.818299

>  <rmsd(smina/fragmenstein)>  (24) 
1.501

>  <ref_pdb>  (24) 
Z2992a

>  <inspiration_score>  (24) 
None

$$$$
P103423
     RDKit          3D

 37 39  0  0  0  0  0  0  0  0999 V2000
   -0.6018    3.3554   -9.2280 C   0  0  0  0  0  0  0  0  0  0  0  0
   -1.2912    2.0700   -9.6978 C   0  0  0  0  0  0  0  0  0  0  0  0
   -1.3325    1.0179   -8.5880 C   0  0  0  0  0  0  0  0  0  0  0  0
   -0.5134    1.4941  -10.8910 C   0  0  0  0  0  0  0  0  0  0  0  0
   -2.6070    2.3706  -10.2283 O   0  0  0  0  0  0  0  0  0  0  0  0
   -3.6052    2.8505   -9.4386 C   0  0  0  0  0  0  0  0  0  0  0  0
   -3.5481    2.9643   -8.2834 O   0  0  0  0  0  0  0  0  0  0  0  0
   -4.7107    3.2399  -10.4198 N   0  0  0  0  0  0  0  0  0  0  0  0
   -5.9087    3.9183  -10.2110 C   0  0  0  0  0  0  0  0  0  0  0  0
   -6.4829    4.0743   -8.9514 C   0  0  0  0  0  0  0  0  0  0  0  0
   -7.6156    4.8723   -8.7854 C   0  0  0  0  0  0  0  0  0  0  0  0
   -8.1609    5.5167   -9.8850 C   0  0  0  0  0  0  0  0  0  0  0  0
   -9.1763    6.3704   -9.6995 F   0  0  0  0  0  0  0  0  0  0  0  0
   -7.6479    5.3232  -11.1674 C   0  0  0  0  0  0  0  0  0  0  0  0
   -8.2530    6.0757  -12.3039 C   0  0  0  0  0  0  0  0  0  0  0  0
   -8.0042    5.4794  -13.5836 N   0  0  0  0  0  0  0  0  0  0  0  0
   -7.0702    5.9109  -14.7177 C   0  0  0  0  0  0  0  0  0  0  0  0
   -6.2945    6.7766  -14.7679 O   0  0  0  0  0  0  0  0  0  0  0  0
   -7.2899    5.1317  -15.9762 C   0  0  0  0  0  0  0  0  0  0  0  0
   -8.5652    4.7278  -16.3790 C   0  0  0  0  0  0  0  0  0  0  0  0
   -8.7699    4.3387  -17.7008 C   0  0  0  0  0  0  0  0  0  0  0  0
  -10.3681    4.0115  -18.2302 Cl  0  0  0  0  0  0  0  0  0  0  0  0
   -7.7248    4.3363  -18.6200 C   0  0  0  0  0  0  0  0  0  0  0  0
   -6.4440    4.6912  -18.2058 C   0  0  0  0  0  0  0  0  0  0  0  0
   -5.4154    4.7269  -19.1407 N   0  0  0  0  0  0  0  0  0  0  0  0
   -3.9288    5.0440  -18.9715 C   0  0  0  0  0  0  0  0  0  0  0  0
   -3.3067    5.2520  -18.0116 O   0  0  0  0  0  0  0  0  0  0  0  0
   -3.4262    5.0765  -20.2354 O   0  0  0  0  0  0  0  0  0  0  0  0
   -2.0458    5.4551  -20.3388 C   0  0  0  0  0  0  0  0  0  0  0  0
   -1.9524    6.9553  -20.4905 C   0  0  0  0  0  0  0  0  0  0  0  0
   -2.0282    7.5440  -21.7595 C   0  0  0  0  0  0  0  0  0  0  0  0
   -1.9742    8.9318  -21.9012 C   0  0  0  0  0  0  0  0  0  0  0  0
   -1.8569    9.7459  -20.7758 C   0  0  0  0  0  0  0  0  0  0  0  0
   -1.7939    9.1732  -19.5073 C   0  0  0  0  0  0  0  0  0  0  0  0
   -1.8406    7.7854  -19.3652 C   0  0  0  0  0  0  0  0  0  0  0  0
   -6.2240    5.0675  -16.8826 C   0  0  0  0  0  0  0  0  0  0  0  0
   -6.5145    4.5111  -11.3199 C   0  0  0  0  0  0  0  0  0  0  0  0
  1  2  1  0
  2  3  1  0
  2  4  1  0
  2  5  1  0
  5  6  1  0
  6  7  2  0
  6  8  1  0
  8  9  1  0
  9 10  2  0
 10 11  1  0
 11 12  2  0
 12 13  1  0
 12 14  1  0
 14 15  1  0
 15 16  1  0
 16 17  1  0
 17 18  2  0
 17 19  1  0
 19 20  2  0
 20 21  1  0
 21 22  1  0
 21 23  2  0
 23 24  1  0
 24 25  1  0
 25 26  1  0
 26 27  2  0
 26 28  1  0
 28 29  1  0
 29 30  1  0
 30 31  2  0
 31 32  1  0
 32 33  2  0
 33 34  1  0
 34 35  2  0
 24 36  2  0
 14 37  2  0
 37  9  1  0
 36 19  1  0
 35 30  1  0
M  END
>  <name>  (25) 
P103423

>  <alias>  (25) 
None

>  <smina_score_min>  (25) 
-7.064

>  <exports>  (25) 
['/opt/xchem-fragalysis-2/maxwin/BulkDock/OUTPUTS/openbind_xx01zvns2b_c2_elabs_1LOUTNY.sdf', '/opt/xchem-fragalysis-2/maxwin/BulkDock/OUTPUTS/openbind_xx01zvns2b_c2_elabs_1LSYIIV.sdf', '/opt/xchem-fragalysis-2/maxwin/openbind-hippo/xx01zvns2b/cycle_02/gnina/openbind_xx01zvns2b_c2_elabs_scored_6.2plus_products.sdf']

>  <tags>  (25) 
syndirella_placed,openbind_xx01zvns2b_c2_elabs,openbind_xx01zvns2b_c2_elabs_scored_6.2plus,syndirella_product,openbind_xx01zvns2b_c2_elabs_scored,openbind_xx01zvns2b_c2_elabs_scored_top80percent,BulkDock Fragalysis export,openbind_xx01zvns2b_c2_elabs_scored_top80percent_despaghettified

>  <subsites>  (25) 
1 - Z4590/B/203/1

>  <smiles>  (25) 
CC(C)(C)OC(=O)Nc1ccc(F)c(CNC(=O)c2cc(Cl)cc(NC(=O)OCc3ccccc3)c2)c1

>  <HIPPO Pose ID>  (25) 
103423

>  <energy_score>  (25) 
-21.30284

>  <inchikey>  (25) 
UJVMMUWVQHRZTE-UHFFFAOYSA-N

>  <gnina_score_min>  (25) 
6.256

>  <gnina_score>  (25) 
6.28

>  <ref_mols>  (25) 
Z2992a

>  <HIPPO Compound ID>  (25) 
163122

>  <distance_score>  (25) 
1.549742

>  <rmsd(smina/fragmenstein)>  (25) 
1.342

>  <ref_pdb>  (25) 
Z2992a

>  <inspiration_score>  (25) 
None

$$$$
P103425
     RDKit          3D

 37 40  0  0  0  0  0  0  0  0999 V2000
   -7.8009    3.2033  -11.0609 C   0  0  0  0  0  0  0  0  0  0  0  0
   -8.0461    4.6783  -10.9338 C   0  0  0  0  0  0  0  0  0  0  0  0
   -8.2001    5.5328  -12.0459 C   0  0  0  0  0  0  0  0  0  0  0  0
   -8.1061    5.1920  -13.3992 N   0  0  0  0  0  0  0  0  0  0  0  0
   -7.2072    4.1588  -14.1137 C   0  0  0  0  0  0  0  0  0  0  0  0
   -6.4606    3.3773  -13.6775 O   0  0  0  0  0  0  0  0  0  0  0  0
   -7.4106    4.2906  -15.5856 C   0  0  0  0  0  0  0  0  0  0  0  0
   -8.7000    4.1597  -16.1125 C   0  0  0  0  0  0  0  0  0  0  0  0
   -8.8898    4.2695  -17.4836 C   0  0  0  0  0  0  0  0  0  0  0  0
  -10.4645    4.1366  -18.1509 Cl  0  0  0  0  0  0  0  0  0  0  0  0
   -7.8138    4.5218  -18.3268 C   0  0  0  0  0  0  0  0  0  0  0  0
   -6.5298    4.6723  -17.7995 C   0  0  0  0  0  0  0  0  0  0  0  0
   -5.5008    4.9296  -18.6991 N   0  0  0  0  0  0  0  0  0  0  0  0
   -3.9961    5.0609  -18.4750 C   0  0  0  0  0  0  0  0  0  0  0  0
   -3.3769    5.0520  -17.4920 O   0  0  0  0  0  0  0  0  0  0  0  0
   -3.4806    5.2021  -19.7234 O   0  0  0  0  0  0  0  0  0  0  0  0
   -2.0758    5.4717  -19.8141 C   0  0  0  0  0  0  0  0  0  0  0  0
   -1.9183    6.9415  -20.1159 C   0  0  0  0  0  0  0  0  0  0  0  0
   -1.8406    7.3932  -21.4403 C   0  0  0  0  0  0  0  0  0  0  0  0
   -1.7430    8.7578  -21.7178 C   0  0  0  0  0  0  0  0  0  0  0  0
   -1.7314    9.6835  -20.6754 C   0  0  0  0  0  0  0  0  0  0  0  0
   -1.8181    9.2460  -19.3548 C   0  0  0  0  0  0  0  0  0  0  0  0
   -1.9132    7.8818  -19.0757 C   0  0  0  0  0  0  0  0  0  0  0  0
   -6.3219    4.5569  -16.4238 C   0  0  0  0  0  0  0  0  0  0  0  0
   -8.5215    6.8898  -11.8560 C   0  0  0  0  0  0  0  0  0  0  0  0
   -8.6411    7.4420  -10.5908 C   0  0  0  0  0  0  0  0  0  0  0  0
   -8.4605    6.6315   -9.4910 C   0  0  0  0  0  0  0  0  0  0  0  0
   -8.1582    5.2696   -9.6539 C   0  0  0  0  0  0  0  0  0  0  0  0
   -8.0690    4.5712   -8.3434 C   0  0  0  0  0  0  0  0  0  0  0  0
   -8.8831    3.7991   -8.0234 O   0  0  0  0  0  0  0  0  0  0  0  0
   -6.8534    5.1316   -7.5616 N   0  0  0  0  0  0  0  0  0  0  0  0
   -6.4604    4.9357   -6.2423 C   0  0  0  0  0  0  0  0  0  0  0  0
   -5.2967    5.5658   -5.7901 C   0  0  0  0  0  0  0  0  0  0  0  0
   -4.9313    5.4894   -4.4433 C   0  0  0  0  0  0  0  0  0  0  0  0
   -5.7338    4.7897   -3.5443 C   0  0  0  0  0  0  0  0  0  0  0  0
   -6.8896    4.1558   -3.9982 C   0  0  0  0  0  0  0  0  0  0  0  0
   -7.2459    4.2177   -5.3461 C   0  0  0  0  0  0  0  0  0  0  0  0
  1  2  1  0
  2  3  2  0
  3  4  1  0
  4  5  1  0
  5  6  2  0
  5  7  1  0
  7  8  2  0
  8  9  1  0
  9 10  1  0
  9 11  2  0
 11 12  1  0
 12 13  1  0
 13 14  1  0
 14 15  2  0
 14 16  1  0
 16 17  1  0
 17 18  1  0
 18 19  2  0
 19 20  1  0
 20 21  2  0
 21 22  1  0
 22 23  2  0
 12 24  2  0
  3 25  1  0
 25 26  2  0
 26 27  1  0
 27 28  2  0
 28 29  1  0
 29 30  2  0
 29 31  1  0
 31 32  1  0
 32 33  2  0
 33 34  1  0
 34 35  2  0
 35 36  1  0
 36 37  2  0
 28  2  1  0
 37 32  1  0
 24  7  1  0
 23 18  1  0
M  END
>  <name>  (26) 
P103425

>  <alias>  (26) 
None

>  <smina_score_min>  (26) 
-8.704

>  <exports>  (26) 
['/opt/xchem-fragalysis-2/maxwin/BulkDock/OUTPUTS/openbind_xx01zvns2b_c2_elabs_1LOUTNY.sdf', '/opt/xchem-fragalysis-2/maxwin/BulkDock/OUTPUTS/openbind_xx01zvns2b_c2_elabs_1LSYIIV.sdf', '/opt/xchem-fragalysis-2/maxwin/openbind-hippo/xx01zvns2b/cycle_02/gnina/openbind_xx01zvns2b_c2_elabs_scored_6.2plus_products.sdf']

>  <tags>  (26) 
syndirella_placed,openbind_xx01zvns2b_c2_elabs,openbind_xx01zvns2b_c2_elabs_scored_6.2plus,syndirella_product,openbind_xx01zvns2b_c2_elabs_scored,openbind_xx01zvns2b_c2_elabs_scored_top80percent,BulkDock Fragalysis export,openbind_xx01zvns2b_c2_elabs_scored_top80percent_despaghettified

>  <subsites>  (26) 
1 - Z4590/B/203/1

>  <smiles>  (26) 
Cc1c(NC(=O)c2cc(Cl)cc(NC(=O)OCc3ccccc3)c2)cccc1C(=O)Nc1ccccc1

>  <HIPPO Pose ID>  (26) 
103425

>  <energy_score>  (26) 
-40.502175

>  <inchikey>  (26) 
QBTPKJGLVJGDLR-UHFFFAOYSA-N

>  <gnina_score_min>  (26) 
6.228

>  <gnina_score>  (26) 
6.005

>  <ref_mols>  (26) 
Z2992a

>  <HIPPO Compound ID>  (26) 
163126

>  <distance_score>  (26) 
1.159529

>  <rmsd(smina/fragmenstein)>  (26) 
1.977

>  <ref_pdb>  (26) 
Z2992a

>  <inspiration_score>  (26) 
None

$$$$
P103427
     RDKit          3D

 37 40  0  0  0  0  0  0  0  0999 V2000
   -3.4369    5.2129  -18.1124 O   0  0  0  0  0  0  0  0  0  0  0  0
   -4.1311    5.1594  -19.0435 C   0  0  0  0  0  0  0  0  0  0  0  0
   -5.6471    4.9816  -19.1417 N   0  0  0  0  0  0  0  0  0  0  0  0
   -6.5939    4.7445  -18.1539 C   0  0  0  0  0  0  0  0  0  0  0  0
   -7.9222    4.5617  -18.5181 C   0  0  0  0  0  0  0  0  0  0  0  0
   -8.8855    4.3072  -17.5447 C   0  0  0  0  0  0  0  0  0  0  0  0
  -10.5177    4.1227  -18.0444 Cl  0  0  0  0  0  0  0  0  0  0  0  0
   -8.5388    4.2129  -16.1982 C   0  0  0  0  0  0  0  0  0  0  0  0
   -7.1982    4.3704  -15.8379 C   0  0  0  0  0  0  0  0  0  0  0  0
   -6.7038    4.1058  -14.4582 C   0  0  0  0  0  0  0  0  0  0  0  0
   -5.7076    3.5076  -14.3494 O   0  0  0  0  0  0  0  0  0  0  0  0
   -7.6197    4.7288  -13.3824 N   0  0  0  0  0  0  0  0  0  0  0  0
   -7.5544    4.6671  -11.9965 C   0  0  0  0  0  0  0  0  0  0  0  0
   -8.3622    5.4833  -11.2116 C   0  0  0  0  0  0  0  0  0  0  0  0
   -8.2508    5.4425   -9.8171 C   0  0  0  0  0  0  0  0  0  0  0  0
   -7.3162    4.6012   -9.2070 C   0  0  0  0  0  0  0  0  0  0  0  0
   -6.4797    3.8122  -10.0025 C   0  0  0  0  0  0  0  0  0  0  0  0
   -5.3159    3.0421   -9.4631 C   0  0  0  0  0  0  0  0  0  0  0  0
   -5.1288    1.9456   -9.8223 O   0  0  0  0  0  0  0  0  0  0  0  0
   -4.4708    3.9540   -8.5352 N   0  0  0  0  0  0  0  0  0  0  0  0
   -3.2225    3.7459   -7.9572 C   0  0  0  0  0  0  0  0  0  0  0  0
   -2.4657    2.6081   -8.2457 C   0  0  0  0  0  0  0  0  0  0  0  0
   -1.2148    2.4210   -7.6505 C   0  0  0  0  0  0  0  0  0  0  0  0
   -0.7170    3.3763   -6.7678 C   0  0  0  0  0  0  0  0  0  0  0  0
   -1.4732    4.5103   -6.4941 C   0  0  0  0  0  0  0  0  0  0  0  0
   -0.9955    5.4301   -5.6446 F   0  0  0  0  0  0  0  0  0  0  0  0
   -2.7185    4.7079   -7.0826 C   0  0  0  0  0  0  0  0  0  0  0  0
   -6.6334    3.8189  -11.3891 C   0  0  0  0  0  0  0  0  0  0  0  0
   -6.2332    4.6518  -16.8140 C   0  0  0  0  0  0  0  0  0  0  0  0
   -3.7006    5.2898  -20.3276 O   0  0  0  0  0  0  0  0  0  0  0  0
   -2.2936    5.5310  -20.4811 C   0  0  0  0  0  0  0  0  0  0  0  0
   -2.0672    7.0216  -20.5589 C   0  0  0  0  0  0  0  0  0  0  0  0
   -1.8823    7.7812  -19.3941 C   0  0  0  0  0  0  0  0  0  0  0  0
   -1.7239    9.1659  -19.4673 C   0  0  0  0  0  0  0  0  0  0  0  0
   -1.7462    9.8049  -20.7052 C   0  0  0  0  0  0  0  0  0  0  0  0
   -1.9315    9.0607  -21.8692 C   0  0  0  0  0  0  0  0  0  0  0  0
   -2.0970    7.6767  -21.7965 C   0  0  0  0  0  0  0  0  0  0  0  0
  1  2  2  0
  2  3  1  0
  3  4  1  0
  4  5  2  0
  5  6  1  0
  6  7  1  0
  6  8  2  0
  8  9  1  0
  9 10  1  0
 10 11  2  0
 10 12  1  0
 12 13  1  0
 13 14  2  0
 14 15  1  0
 15 16  2  0
 16 17  1  0
 17 18  1  0
 18 19  2  0
 18 20  1  0
 20 21  1  0
 21 22  2  0
 22 23  1  0
 23 24  2  0
 24 25  1  0
 25 26  1  0
 25 27  2  0
 17 28  2  0
  9 29  2  0
  2 30  1  0
 30 31  1  0
 31 32  1  0
 32 33  2  0
 33 34  1  0
 34 35  2  0
 35 36  1  0
 36 37  2  0
 29  4  1  0
 37 32  1  0
 28 13  1  0
 27 21  1  0
M  END
>  <name>  (27) 
P103427

>  <alias>  (27) 
None

>  <smina_score_min>  (27) 
-8.144

>  <exports>  (27) 
['/opt/xchem-fragalysis-2/maxwin/BulkDock/OUTPUTS/openbind_xx01zvns2b_c2_elabs_1LOUTNY.sdf', '/opt/xchem-fragalysis-2/maxwin/BulkDock/OUTPUTS/openbind_xx01zvns2b_c2_elabs_1LSYIIV.sdf', '/opt/xchem-fragalysis-2/maxwin/openbind-hippo/xx01zvns2b/cycle_02/gnina/openbind_xx01zvns2b_c2_elabs_scored_6.2plus_products.sdf']

>  <tags>  (27) 
syndirella_placed,openbind_xx01zvns2b_c2_elabs,openbind_xx01zvns2b_c2_elabs_scored_6.2plus,syndirella_product,openbind_xx01zvns2b_c2_elabs_scored,openbind_xx01zvns2b_c2_elabs_scored_top80percent,BulkDock Fragalysis export,openbind_xx01zvns2b_c2_elabs_scored_top80percent_despaghettified

>  <subsites>  (27) 
1 - Z4590/B/203/1

>  <smiles>  (27) 
O=C(Nc1cc(Cl)cc(C(=O)Nc2cccc(C(=O)Nc3cccc(F)c3)c2)c1)OCc1ccccc1

>  <HIPPO Pose ID>  (27) 
103427

>  <energy_score>  (27) 
-27.366406

>  <inchikey>  (27) 
WOHRHXBWDRBILI-UHFFFAOYSA-N

>  <gnina_score_min>  (27) 
6.256

>  <gnina_score>  (27) 
6.216

>  <ref_mols>  (27) 
Z2992a

>  <HIPPO Compound ID>  (27) 
163131

>  <distance_score>  (27) 
1.41231

>  <rmsd(smina/fragmenstein)>  (27) 
1.826

>  <ref_pdb>  (27) 
Z2992a

>  <inspiration_score>  (27) 
None

$$$$
P103432
     RDKit          3D

 38 41  0  0  0  0  0  0  0  0999 V2000
    1.5849    1.4174   -7.2420 C   0  0  0  0  0  0  0  0  0  0  0  0
    0.8771    0.7172   -8.2590 O   0  0  0  0  0  0  0  0  0  0  0  0
   -0.3693    1.2567   -8.5121 C   0  0  0  0  0  0  0  0  0  0  0  0
   -1.1010    0.6657   -9.5295 C   0  0  0  0  0  0  0  0  0  0  0  0
   -2.3692    1.1651   -9.8248 C   0  0  0  0  0  0  0  0  0  0  0  0
   -2.8552    2.2450   -9.0988 C   0  0  0  0  0  0  0  0  0  0  0  0
   -4.1000    2.7819   -9.4046 N   0  0  0  0  0  0  0  0  0  0  0  0
   -4.8540    3.9852   -8.7899 C   0  0  0  0  0  0  0  0  0  0  0  0
   -4.5807    4.6652   -7.8795 O   0  0  0  0  0  0  0  0  0  0  0  0
   -6.0735    4.3530   -9.5886 C   0  0  0  0  0  0  0  0  0  0  0  0
   -7.1155    5.0161   -8.9246 C   0  0  0  0  0  0  0  0  0  0  0  0
   -8.1602    5.5781   -9.6493 C   0  0  0  0  0  0  0  0  0  0  0  0
   -8.1742    5.4732  -11.0379 C   0  0  0  0  0  0  0  0  0  0  0  0
   -7.1568    4.7960  -11.7109 C   0  0  0  0  0  0  0  0  0  0  0  0
   -7.1652    4.7214  -13.1008 N   0  0  0  0  0  0  0  0  0  0  0  0
   -8.1370    5.3287  -14.1292 C   0  0  0  0  0  0  0  0  0  0  0  0
   -9.0412    6.0521  -13.9809 O   0  0  0  0  0  0  0  0  0  0  0  0
   -7.8550    4.8791  -15.5157 C   0  0  0  0  0  0  0  0  0  0  0  0
   -8.9762    4.4479  -16.2173 C   0  0  0  0  0  0  0  0  0  0  0  0
   -8.9149    4.2734  -17.5838 C   0  0  0  0  0  0  0  0  0  0  0  0
  -10.3669    3.9896  -18.4281 Cl  0  0  0  0  0  0  0  0  0  0  0  0
   -7.7187    4.4442  -18.2600 C   0  0  0  0  0  0  0  0  0  0  0  0
   -6.5681    4.8105  -17.5535 C   0  0  0  0  0  0  0  0  0  0  0  0
   -5.4144    4.9727  -18.3140 N   0  0  0  0  0  0  0  0  0  0  0  0
   -3.9822    5.2784  -17.8899 C   0  0  0  0  0  0  0  0  0  0  0  0
   -3.5419    5.5211  -16.8428 O   0  0  0  0  0  0  0  0  0  0  0  0
   -3.2805    5.2161  -19.0501 O   0  0  0  0  0  0  0  0  0  0  0  0
   -1.9182    5.6546  -19.0234 C   0  0  0  0  0  0  0  0  0  0  0  0
   -1.8726    7.0276  -19.6472 C   0  0  0  0  0  0  0  0  0  0  0  0
   -1.9952    8.1694  -18.8436 C   0  0  0  0  0  0  0  0  0  0  0  0
   -1.9915    9.4424  -19.4158 C   0  0  0  0  0  0  0  0  0  0  0  0
   -1.8753    9.5865  -20.7972 C   0  0  0  0  0  0  0  0  0  0  0  0
   -1.7675    8.4576  -21.6080 C   0  0  0  0  0  0  0  0  0  0  0  0
   -1.7703    7.1831  -21.0371 C   0  0  0  0  0  0  0  0  0  0  0  0
   -6.6291    5.0456  -16.1731 C   0  0  0  0  0  0  0  0  0  0  0  0
   -6.1130    4.2255  -10.9887 C   0  0  0  0  0  0  0  0  0  0  0  0
   -2.0451    2.7734   -8.0969 C   0  0  0  0  0  0  0  0  0  0  0  0
   -0.8126    2.3009   -7.7824 N   0  0  0  0  0  0  0  0  0  0  0  0
  1  2  1  0
  2  3  1  0
  3  4  2  0
  4  5  1  0
  5  6  2  0
  6  7  1  0
  7  8  1  0
  8  9  2  0
  8 10  1  0
 10 11  2  0
 11 12  1  0
 12 13  2  0
 13 14  1  0
 14 15  1  0
 15 16  1  0
 16 17  2  0
 16 18  1  0
 18 19  2  0
 19 20  1  0
 20 21  1  0
 20 22  2  0
 22 23  1  0
 23 24  1  0
 24 25  1  0
 25 26  2  0
 25 27  1  0
 27 28  1  0
 28 29  1  0
 29 30  2  0
 30 31  1  0
 31 32  2  0
 32 33  1  0
 33 34  2  0
 23 35  2  0
 14 36  2  0
  6 37  1  0
 37 38  2  0
 38  3  1  0
 36 10  1  0
 35 18  1  0
 34 29  1  0
M  END
>  <name>  (28) 
P103432

>  <alias>  (28) 
None

>  <smina_score_min>  (28) 
-7.567

>  <exports>  (28) 
['/opt/xchem-fragalysis-2/maxwin/BulkDock/OUTPUTS/openbind_xx01zvns2b_c2_elabs_1LOUTNY.sdf', '/opt/xchem-fragalysis-2/maxwin/BulkDock/OUTPUTS/openbind_xx01zvns2b_c2_elabs_1LSYIIV.sdf', '/opt/xchem-fragalysis-2/maxwin/openbind-hippo/xx01zvns2b/cycle_02/gnina/openbind_xx01zvns2b_c2_elabs_scored_6.2plus_products.sdf']

>  <tags>  (28) 
syndirella_placed,openbind_xx01zvns2b_c2_elabs,openbind_xx01zvns2b_c2_elabs_scored_6.2plus,syndirella_product,openbind_xx01zvns2b_c2_elabs_scored,openbind_xx01zvns2b_c2_elabs_scored_top80percent,BulkDock Fragalysis export,openbind_xx01zvns2b_c2_elabs_scored_top80percent_despaghettified

>  <subsites>  (28) 
1 - Z4590/B/203/1

>  <smiles>  (28) 
COc1ccc(NC(=O)c2cccc(NC(=O)c3cc(Cl)cc(NC(=O)OCc4ccccc4)c3)c2)cn1

>  <HIPPO Pose ID>  (28) 
103432

>  <energy_score>  (28) 
-34.948676

>  <inchikey>  (28) 
ZXKQMJBCDPKMPS-UHFFFAOYSA-N

>  <gnina_score_min>  (28) 
6.206

>  <gnina_score>  (28) 
6.187

>  <ref_mols>  (28) 
Z2992a

>  <HIPPO Compound ID>  (28) 
163137

>  <distance_score>  (28) 
1.628748

>  <rmsd(smina/fragmenstein)>  (28) 
1.611

>  <ref_pdb>  (28) 
Z2992a

>  <inspiration_score>  (28) 
None

$$$$
P103435
     RDKit          3D

 38 42  0  0  0  0  0  0  0  0999 V2000
  -12.3135    2.0750   -5.0695 O   0  0  0  0  0  0  0  0  0  0  0  0
  -11.1584    2.4383   -5.2134 C   0  0  0  0  0  0  0  0  0  0  0  0
  -10.1651    1.8954   -6.1898 C   0  0  0  0  0  0  0  0  0  0  0  0
   -9.0760    2.9731   -6.2650 C   0  0  1  0  0  0  0  0  0  0  0  0
   -8.8896    3.5379   -7.6047 N   0  0  0  0  0  0  0  0  0  0  0  0
   -9.0801    2.7511   -8.8268 C   0  0  0  0  0  0  0  0  0  0  0  0
   -8.5193    3.6391   -9.8850 C   0  0  0  0  0  0  0  0  0  0  0  0
   -8.5299    3.5071  -11.2640 C   0  0  0  0  0  0  0  0  0  0  0  0
   -7.9121    4.5059  -12.0245 C   0  0  0  0  0  0  0  0  0  0  0  0
   -7.8511    4.3781  -13.4085 N   0  0  0  0  0  0  0  0  0  0  0  0
   -7.1814    5.2800  -14.4722 C   0  0  0  0  0  0  0  0  0  0  0  0
   -6.5113    6.2288  -14.3471 O   0  0  0  0  0  0  0  0  0  0  0  0
   -7.4474    4.8221  -15.8583 C   0  0  0  0  0  0  0  0  0  0  0  0
   -8.7348    4.4952  -16.2756 C   0  0  0  0  0  0  0  0  0  0  0  0
   -8.9695    4.2995  -17.6338 C   0  0  0  0  0  0  0  0  0  0  0  0
  -10.5755    4.0642  -18.1821 Cl  0  0  0  0  0  0  0  0  0  0  0  0
   -7.9397    4.4015  -18.5672 C   0  0  0  0  0  0  0  0  0  0  0  0
   -6.6510    4.7117  -18.1429 C   0  0  0  0  0  0  0  0  0  0  0  0
   -5.6459    4.8647  -19.0904 N   0  0  0  0  0  0  0  0  0  0  0  0
   -4.1425    5.0897  -18.9178 C   0  0  0  0  0  0  0  0  0  0  0  0
   -3.5110    5.2603  -17.9564 O   0  0  0  0  0  0  0  0  0  0  0  0
   -3.6384    5.1154  -20.1816 O   0  0  0  0  0  0  0  0  0  0  0  0
   -2.2381    5.4171  -20.2839 C   0  0  0  0  0  0  0  0  0  0  0  0
   -2.0635    6.9085  -20.4506 C   0  0  0  0  0  0  0  0  0  0  0  0
   -1.9255    7.7439  -19.3322 C   0  0  0  0  0  0  0  0  0  0  0  0
   -1.8047    9.1260  -19.4877 C   0  0  0  0  0  0  0  0  0  0  0  0
   -1.8196    9.6874  -20.7628 C   0  0  0  0  0  0  0  0  0  0  0  0
   -1.9613    8.8682  -21.8817 C   0  0  0  0  0  0  0  0  0  0  0  0
   -2.0885    7.4863  -21.7267 C   0  0  0  0  0  0  0  0  0  0  0  0
   -6.4036    4.9165  -16.7881 C   0  0  0  0  0  0  0  0  0  0  0  0
   -7.3232    5.6233  -11.3987 C   0  0  0  0  0  0  0  0  0  0  0  0
   -7.3035    5.7408  -10.0107 C   0  0  0  0  0  0  0  0  0  0  0  0
   -7.8946    4.7277   -9.2892 C   0  0  0  0  0  0  0  0  0  0  0  0
   -7.9813    4.5673   -7.8395 C   0  0  0  0  0  0  0  0  0  0  0  0
   -7.3334    5.2325   -7.0553 O   0  0  0  0  0  0  0  0  0  0  0  0
   -9.5689    3.9989   -5.2290 C   0  0  0  0  0  0  0  0  0  0  0  0
   -9.1773    5.1380   -5.0227 O   0  0  0  0  0  0  0  0  0  0  0  0
  -10.6091    3.4710   -4.5446 N   0  0  0  0  0  0  0  0  0  0  0  0
  1  2  2  0
  2  3  1  0
  3  4  1  0
  4  5  1  6
  5  6  1  0
  6  7  1  0
  7  8  2  0
  8  9  1  0
  9 10  1  0
 10 11  1  0
 11 12  2  0
 11 13  1  0
 13 14  2  0
 14 15  1  0
 15 16  1  0
 15 17  2  0
 17 18  1  0
 18 19  1  0
 19 20  1  0
 20 21  2  0
 20 22  1  0
 22 23  1  0
 23 24  1  0
 24 25  2  0
 25 26  1  0
 26 27  2  0
 27 28  1  0
 28 29  2  0
 18 30  2  0
  9 31  2  0
 31 32  1  0
 32 33  2  0
 33 34  1  0
 34 35  2  0
  4 36  1  0
 36 37  2  0
 36 38  1  0
 38  2  1  0
 34  5  1  0
 33  7  1  0
 30 13  1  0
 29 24  1  0
M  END
>  <name>  (29) 
P103435

>  <alias>  (29) 
None

>  <smina_score_min>  (29) 
-9.195

>  <exports>  (29) 
['/opt/xchem-fragalysis-2/maxwin/BulkDock/OUTPUTS/openbind_xx01zvns2b_c2_elabs_1LOUTNY.sdf', '/opt/xchem-fragalysis-2/maxwin/BulkDock/OUTPUTS/openbind_xx01zvns2b_c2_elabs_1LSYIIV.sdf', '/opt/xchem-fragalysis-2/maxwin/openbind-hippo/xx01zvns2b/cycle_02/gnina/openbind_xx01zvns2b_c2_elabs_scored_6.2plus_products.sdf']

>  <tags>  (29) 
syndirella_placed,openbind_xx01zvns2b_c2_elabs,openbind_xx01zvns2b_c2_elabs_scored_6.2plus,syndirella_product,openbind_xx01zvns2b_c2_elabs_scored,openbind_xx01zvns2b_c2_elabs_scored_top80percent,BulkDock Fragalysis export,openbind_xx01zvns2b_c2_elabs_scored_top80percent_despaghettified

>  <subsites>  (29) 
1 - Z4590/B/203/1

>  <smiles>  (29) 
O=C1C[C@@H](N2Cc3cc(NC(=O)c4cc(Cl)cc(NC(=O)OCc5ccccc5)c4)ccc3C2=O)C(=O)N1

>  <HIPPO Pose ID>  (29) 
103435

>  <energy_score>  (29) 
-6.779263

>  <inchikey>  (29) 
YNPVKLKTLJNDDE-JOCHJYFZSA-N

>  <gnina_score_min>  (29) 
6.383

>  <gnina_score>  (29) 
6.342

>  <ref_mols>  (29) 
Z2992a

>  <HIPPO Compound ID>  (29) 
163140

>  <distance_score>  (29) 
0.551301

>  <rmsd(smina/fragmenstein)>  (29) 
1.054

>  <ref_pdb>  (29) 
Z2992a

>  <inspiration_score>  (29) 
None

$$$$
P103437
     RDKit          3D

 38 41  0  0  0  0  0  0  0  0999 V2000
   -4.6545    1.8389  -12.2772 C   0  0  0  0  0  0  0  0  0  0  0  0
   -6.0566    2.0491  -12.4557 O   0  0  0  0  0  0  0  0  0  0  0  0
   -6.5312    3.0107  -11.5998 C   0  0  0  0  0  0  0  0  0  0  0  0
   -6.4523    2.7964  -10.2226 C   0  0  0  0  0  0  0  0  0  0  0  0
   -6.9851    3.7265   -9.3362 C   0  0  0  0  0  0  0  0  0  0  0  0
   -7.6620    4.8509   -9.8193 C   0  0  0  0  0  0  0  0  0  0  0  0
   -8.1460    5.9412   -8.9017 C   0  0  0  0  0  0  0  0  0  0  0  0
   -8.7134    6.8699   -9.4127 O   0  0  0  0  0  0  0  0  0  0  0  0
   -7.7578    5.7251   -7.5516 N   0  0  0  0  0  0  0  0  0  0  0  0
   -7.8291    6.6304   -6.3527 C   0  0  0  0  0  0  0  0  0  0  0  0
   -7.2380    6.1186   -5.0234 C   0  0  0  0  0  0  0  0  0  0  0  0
   -8.1292    5.1108   -4.4508 N   0  0  0  0  0  0  0  0  0  0  0  0
   -7.5192    4.4141   -3.3265 C   0  0  0  0  0  0  0  0  0  0  0  0
   -8.4649    4.1847   -5.5361 C   0  0  0  0  0  0  0  0  0  0  0  0
   -8.8767    4.9937   -6.7905 C   0  0  0  0  0  0  0  0  0  0  0  0
   -7.8243    5.0129  -11.2061 C   0  0  0  0  0  0  0  0  0  0  0  0
   -7.2209    4.1237  -12.1000 C   0  0  0  0  0  0  0  0  0  0  0  0
   -7.3213    4.4052  -13.4643 N   0  0  0  0  0  0  0  0  0  0  0  0
   -6.4288    4.1218  -14.5528 C   0  0  0  0  0  0  0  0  0  0  0  0
   -5.3310    3.6409  -14.5607 O   0  0  0  0  0  0  0  0  0  0  0  0
   -7.0019    4.4108  -15.9087 C   0  0  0  0  0  0  0  0  0  0  0  0
   -8.3580    4.2211  -16.2070 C   0  0  0  0  0  0  0  0  0  0  0  0
   -8.7806    4.3225  -17.5300 C   0  0  0  0  0  0  0  0  0  0  0  0
  -10.4305    4.1058  -17.9523 Cl  0  0  0  0  0  0  0  0  0  0  0  0
   -7.8774    4.5998  -18.5495 C   0  0  0  0  0  0  0  0  0  0  0  0
   -6.5330    4.8031  -18.2628 C   0  0  0  0  0  0  0  0  0  0  0  0
   -5.6651    5.0374  -19.3253 N   0  0  0  0  0  0  0  0  0  0  0  0
   -4.2592    5.1987  -19.3594 C   0  0  0  0  0  0  0  0  0  0  0  0
   -3.4403    5.0988  -18.4970 O   0  0  0  0  0  0  0  0  0  0  0  0
   -3.9432    5.4558  -20.6598 O   0  0  0  0  0  0  0  0  0  0  0  0
   -2.5433    5.6033  -20.9414 C   0  0  0  0  0  0  0  0  0  0  0  0
   -2.1913    7.0702  -20.9131 C   0  0  0  0  0  0  0  0  0  0  0  0
   -2.3780    7.8691  -22.0491 C   0  0  0  0  0  0  0  0  0  0  0  0
   -2.0823    9.2330  -22.0113 C   0  0  0  0  0  0  0  0  0  0  0  0
   -1.6084    9.8130  -20.8355 C   0  0  0  0  0  0  0  0  0  0  0  0
   -1.4302    9.0302  -19.6963 C   0  0  0  0  0  0  0  0  0  0  0  0
   -1.7211    7.6658  -19.7342 C   0  0  0  0  0  0  0  0  0  0  0  0
   -6.0981    4.7171  -16.9422 C   0  0  0  0  0  0  0  0  0  0  0  0
  1  2  1  0
  2  3  1  0
  3  4  2  0
  4  5  1  0
  5  6  2  0
  6  7  1  0
  7  8  2  0
  7  9  1  0
  9 10  1  0
 10 11  1  0
 11 12  1  0
 12 13  1  0
 12 14  1  0
 14 15  1  0
  6 16  1  0
 16 17  2  0
 17 18  1  0
 18 19  1  0
 19 20  2  0
 19 21  1  0
 21 22  2  0
 22 23  1  0
 23 24  1  0
 23 25  2  0
 25 26  1  0
 26 27  1  0
 27 28  1  0
 28 29  2  0
 28 30  1  0
 30 31  1  0
 31 32  1  0
 32 33  2  0
 33 34  1  0
 34 35  2  0
 35 36  1  0
 36 37  2  0
 26 38  2  0
 17  3  1  0
 38 21  1  0
 15  9  1  0
 37 32  1  0
M  END
>  <name>  (30) 
P103437

>  <alias>  (30) 
None

>  <smina_score_min>  (30) 
-8.189

>  <exports>  (30) 
['/opt/xchem-fragalysis-2/maxwin/BulkDock/OUTPUTS/openbind_xx01zvns2b_c2_elabs_1LOUTNY.sdf', '/opt/xchem-fragalysis-2/maxwin/BulkDock/OUTPUTS/openbind_xx01zvns2b_c2_elabs_1LSYIIV.sdf', '/opt/xchem-fragalysis-2/maxwin/openbind-hippo/xx01zvns2b/cycle_02/gnina/openbind_xx01zvns2b_c2_elabs_scored_6.2plus_products.sdf']

>  <tags>  (30) 
syndirella_placed,openbind_xx01zvns2b_c2_elabs,openbind_xx01zvns2b_c2_elabs_scored_6.2plus,syndirella_product,openbind_xx01zvns2b_c2_elabs_scored,openbind_xx01zvns2b_c2_elabs_scored_top80percent,BulkDock Fragalysis export,openbind_xx01zvns2b_c2_elabs_scored_top80percent_despaghettified

>  <subsites>  (30) 
1 - Z4590/B/203/1

>  <smiles>  (30) 
COc1ccc(C(=O)N2CCN(C)CC2)cc1NC(=O)c1cc(Cl)cc(NC(=O)OCc2ccccc2)c1

>  <HIPPO Pose ID>  (30) 
103437

>  <energy_score>  (30) 
-14.171735

>  <inchikey>  (30) 
KZIZVMPODVWBRU-UHFFFAOYSA-N

>  <gnina_score_min>  (30) 
6.272

>  <gnina_score>  (30) 
6.062

>  <ref_mols>  (30) 
Z2992a

>  <HIPPO Compound ID>  (30) 
163142

>  <distance_score>  (30) 
1.646296

>  <rmsd(smina/fragmenstein)>  (30) 
1.234

>  <ref_pdb>  (30) 
Z2992a

>  <inspiration_score>  (30) 
None

$$$$
P103442
     RDKit          3D

 38 42  0  0  0  0  0  0  0  0999 V2000
   -1.3921    5.6397   -8.2080 C   0  0  0  0  0  0  0  0  0  0  0  0
   -2.6387    4.8520   -8.4420 C   0  0  0  0  0  0  0  0  0  0  0  0
   -3.7848    5.0795   -7.7074 C   0  0  0  0  0  0  0  0  0  0  0  0
   -4.9214    4.3142   -7.9767 C   0  0  0  0  0  0  0  0  0  0  0  0
   -4.9168    3.3470   -8.9793 C   0  0  0  0  0  0  0  0  0  0  0  0
   -6.0318    2.5511   -9.2676 N   0  0  0  0  0  0  0  0  0  0  0  0
   -6.0133    1.9207  -10.5880 C   0  0  0  0  0  0  0  0  0  0  0  0
   -6.4859    2.8985  -11.6761 C   0  0  0  0  0  0  0  0  0  0  0  0
   -7.4026    4.0334  -11.2538 C   0  0  0  0  0  0  0  0  0  0  0  0
   -7.7528    4.1277   -9.8773 C   0  0  0  0  0  0  0  0  0  0  0  0
   -8.4003    5.2602   -9.3758 C   0  0  0  0  0  0  0  0  0  0  0  0
   -8.7226    6.3007  -10.2296 C   0  0  0  0  0  0  0  0  0  0  0  0
   -8.4825    6.1705  -11.5958 C   0  0  0  0  0  0  0  0  0  0  0  0
   -7.8331    5.0449  -12.1296 C   0  0  0  0  0  0  0  0  0  0  0  0
   -7.7540    5.0500  -13.5309 N   0  0  0  0  0  0  0  0  0  0  0  0
   -6.8480    4.2426  -14.4885 C   0  0  0  0  0  0  0  0  0  0  0  0
   -5.9739    3.5048  -14.2602 O   0  0  0  0  0  0  0  0  0  0  0  0
   -7.2541    4.4410  -15.8970 C   0  0  0  0  0  0  0  0  0  0  0  0
   -8.5858    4.2690  -16.2811 C   0  0  0  0  0  0  0  0  0  0  0  0
   -8.9004    4.3125  -17.6330 C   0  0  0  0  0  0  0  0  0  0  0  0
  -10.5272    4.1301  -18.1439 Cl  0  0  0  0  0  0  0  0  0  0  0  0
   -7.9098    4.5269  -18.5878 C   0  0  0  0  0  0  0  0  0  0  0  0
   -6.5877    4.7216  -18.1961 C   0  0  0  0  0  0  0  0  0  0  0  0
   -5.6215    4.9425  -19.1690 N   0  0  0  0  0  0  0  0  0  0  0  0
   -4.1089    5.1294  -19.0433 C   0  0  0  0  0  0  0  0  0  0  0  0
   -3.4345    5.2054  -18.0995 O   0  0  0  0  0  0  0  0  0  0  0  0
   -3.6543    5.2418  -20.3209 O   0  0  0  0  0  0  0  0  0  0  0  0
   -2.2491    5.5055  -20.4509 C   0  0  0  0  0  0  0  0  0  0  0  0
   -2.0451    6.9990  -20.5401 C   0  0  0  0  0  0  0  0  0  0  0  0
   -2.0785    7.6438  -21.7831 C   0  0  0  0  0  0  0  0  0  0  0  0
   -1.9321    9.0294  -21.8663 C   0  0  0  0  0  0  0  0  0  0  0  0
   -1.7627    9.7856  -20.7075 C   0  0  0  0  0  0  0  0  0  0  0  0
   -1.7380    9.1569  -19.4643 C   0  0  0  0  0  0  0  0  0  0  0  0
   -1.8775    7.7707  -19.3807 C   0  0  0  0  0  0  0  0  0  0  0  0
   -6.2563    4.6722  -16.8462 C   0  0  0  0  0  0  0  0  0  0  0  0
   -7.3789    3.0099   -8.9281 C   0  0  0  0  0  0  0  0  0  0  0  0
   -3.7556    3.1565   -9.6466 N   0  0  0  0  0  0  0  0  0  0  0  0
   -2.6161    3.9039   -9.3898 N   0  0  0  0  0  0  0  0  0  0  0  0
  1  2  1  0
  2  3  2  0
  3  4  1  0
  4  5  2  0
  5  6  1  0
  6  7  1  0
  7  8  1  0
  8  9  1  0
  9 10  2  0
 10 11  1  0
 11 12  2  0
 12 13  1  0
 13 14  2  0
 14 15  1  0
 15 16  1  0
 16 17  2  0
 16 18  1  0
 18 19  2  0
 19 20  1  0
 20 21  1  0
 20 22  2  0
 22 23  1  0
 23 24  1  0
 24 25  1  0
 25 26  2  0
 25 27  1  0
 27 28  1  0
 28 29  1  0
 29 30  2  0
 30 31  1  0
 31 32  2  0
 32 33  1  0
 33 34  2  0
 23 35  2  0
 10 36  1  0
  5 37  1  0
 37 38  2  0
 38  2  1  0
 36  6  1  0
 14  9  1  0
 35 18  1  0
 34 29  1  0
M  END
>  <name>  (31) 
P103442

>  <alias>  (31) 
None

>  <smina_score_min>  (31) 
-7.864

>  <exports>  (31) 
['/opt/xchem-fragalysis-2/maxwin/BulkDock/OUTPUTS/openbind_xx01zvns2b_c2_elabs_1LOUTNY.sdf', '/opt/xchem-fragalysis-2/maxwin/BulkDock/OUTPUTS/openbind_xx01zvns2b_c2_elabs_1LSYIIV.sdf', '/opt/xchem-fragalysis-2/maxwin/openbind-hippo/xx01zvns2b/cycle_02/gnina/openbind_xx01zvns2b_c2_elabs_scored_6.2plus_products.sdf']

>  <tags>  (31) 
syndirella_placed,openbind_xx01zvns2b_c2_elabs,openbind_xx01zvns2b_c2_elabs_scored_6.2plus,syndirella_product,openbind_xx01zvns2b_c2_elabs_scored,openbind_xx01zvns2b_c2_elabs_scored_top80percent,BulkDock Fragalysis export,openbind_xx01zvns2b_c2_elabs_scored_top80percent_despaghettified

>  <subsites>  (31) 
1 - Z4590/B/203/1

>  <smiles>  (31) 
Cc1ccc(N2CCc3c(cccc3NC(=O)c3cc(Cl)cc(NC(=O)OCc4ccccc4)c3)C2)nn1

>  <HIPPO Pose ID>  (31) 
103442

>  <energy_score>  (31) 
-33.222666

>  <inchikey>  (31) 
UDXHUOVLBQUUDZ-UHFFFAOYSA-N

>  <gnina_score_min>  (31) 
6.804

>  <gnina_score>  (31) 
6.65

>  <ref_mols>  (31) 
Z2992a

>  <HIPPO Compound ID>  (31) 
163158

>  <distance_score>  (31) 
0.892903

>  <rmsd(smina/fragmenstein)>  (31) 
1.831

>  <ref_pdb>  (31) 
Z2992a

>  <inspiration_score>  (31) 
None

$$$$
P103449
     RDKit          3D

 39 43  0  0  0  0  0  0  0  0999 V2000
   -2.2928    1.2754   -9.1010 O   0  0  0  0  0  0  0  0  0  0  0  0
   -3.1903    1.5165   -9.8930 C   0  0  0  0  0  0  0  0  0  0  0  0
   -4.5190    0.8244   -9.9271 C   0  0  0  0  0  0  0  0  0  0  0  0
   -5.2953    1.5378  -11.0087 C   0  0  1  0  0  0  0  0  0  0  0  0
   -6.5412    2.1791  -10.6232 N   0  0  0  0  0  0  0  0  0  0  0  0
   -6.6538    3.0524   -9.5731 C   0  0  0  0  0  0  0  0  0  0  0  0
   -5.8208    3.2809   -8.7122 O   0  0  0  0  0  0  0  0  0  0  0  0
   -7.7390    3.9852   -9.8885 C   0  0  0  0  0  0  0  0  0  0  0  0
   -7.9670    5.1966   -9.2528 C   0  0  0  0  0  0  0  0  0  0  0  0
   -8.4116    6.2566  -10.0417 C   0  0  0  0  0  0  0  0  0  0  0  0
   -8.5396    6.0955  -11.4336 C   0  0  0  0  0  0  0  0  0  0  0  0
   -8.3385    4.8465  -12.0296 C   0  0  0  0  0  0  0  0  0  0  0  0
   -8.1589    4.7135  -13.3962 N   0  0  0  0  0  0  0  0  0  0  0  0
   -7.6580    5.7221  -14.4390 C   0  0  0  0  0  0  0  0  0  0  0  0
   -7.3887    6.8495  -14.3302 O   0  0  0  0  0  0  0  0  0  0  0  0
   -7.6182    5.1035  -15.7820 C   0  0  0  0  0  0  0  0  0  0  0  0
   -8.8138    4.6159  -16.2988 C   0  0  0  0  0  0  0  0  0  0  0  0
   -8.8870    4.3100  -17.6469 C   0  0  0  0  0  0  0  0  0  0  0  0
  -10.4165    3.9496  -18.3154 Cl  0  0  0  0  0  0  0  0  0  0  0  0
   -7.7680    4.4170  -18.4656 C   0  0  0  0  0  0  0  0  0  0  0  0
   -6.5525    4.8432  -17.9266 C   0  0  0  0  0  0  0  0  0  0  0  0
   -5.4617    4.9349  -18.7830 N   0  0  0  0  0  0  0  0  0  0  0  0
   -4.0030    5.2870  -18.4986 C   0  0  0  0  0  0  0  0  0  0  0  0
   -3.4889    5.6328  -17.5154 O   0  0  0  0  0  0  0  0  0  0  0  0
   -3.3784    5.1585  -19.6997 O   0  0  0  0  0  0  0  0  0  0  0  0
   -1.9985    5.5453  -19.7365 C   0  0  0  0  0  0  0  0  0  0  0  0
   -1.9092    6.9994  -20.1299 C   0  0  0  0  0  0  0  0  0  0  0  0
   -1.9008    7.3718  -21.4809 C   0  0  0  0  0  0  0  0  0  0  0  0
   -1.8557    8.7196  -21.8425 C   0  0  0  0  0  0  0  0  0  0  0  0
   -1.8290    9.7069  -20.8585 C   0  0  0  0  0  0  0  0  0  0  0  0
   -1.8489    9.3483  -19.5121 C   0  0  0  0  0  0  0  0  0  0  0  0
   -1.8901    8.0016  -19.1494 C   0  0  0  0  0  0  0  0  0  0  0  0
   -6.4757    5.2028  -16.5809 C   0  0  0  0  0  0  0  0  0  0  0  0
   -8.0408    3.7718  -11.2184 C   0  0  0  0  0  0  0  0  0  0  0  0
   -7.3678    2.5507  -11.6483 C   0  0  0  0  0  0  0  0  0  0  0  0
   -7.4165    2.0814  -12.7733 O   0  0  0  0  0  0  0  0  0  0  0  0
   -4.3186    2.5982  -11.5114 C   0  0  0  0  0  0  0  0  0  0  0  0
   -4.5539    3.4929  -12.3089 O   0  0  0  0  0  0  0  0  0  0  0  0
   -3.1279    2.4298  -10.8869 N   0  0  0  0  0  0  0  0  0  0  0  0
  1  2  2  0
  2  3  1  0
  3  4  1  0
  4  5  1  1
  5  6  1  0
  6  7  2  0
  6  8  1  0
  8  9  2  0
  9 10  1  0
 10 11  2  0
 11 12  1  0
 12 13  1  0
 13 14  1  0
 14 15  2  0
 14 16  1  0
 16 17  2  0
 17 18  1  0
 18 19  1  0
 18 20  2  0
 20 21  1  0
 21 22  1  0
 22 23  1  0
 23 24  2  0
 23 25  1  0
 25 26  1  0
 26 27  1  0
 27 28  2  0
 28 29  1  0
 29 30  2  0
 30 31  1  0
 31 32  2  0
 21 33  2  0
 12 34  2  0
 34 35  1  0
 35 36  2  0
  4 37  1  0
 37 38  2  0
 37 39  1  0
 39  2  1  0
 35  5  1  0
 34  8  1  0
 33 16  1  0
 32 27  1  0
M  END
>  <name>  (32) 
P103449

>  <alias>  (32) 
None

>  <smina_score_min>  (32) 
-8.841

>  <exports>  (32) 
['/opt/xchem-fragalysis-2/maxwin/BulkDock/OUTPUTS/openbind_xx01zvns2b_c2_elabs_1LOUTNY.sdf', '/opt/xchem-fragalysis-2/maxwin/BulkDock/OUTPUTS/openbind_xx01zvns2b_c2_elabs_1LSYIIV.sdf', '/opt/xchem-fragalysis-2/maxwin/openbind-hippo/xx01zvns2b/cycle_02/gnina/openbind_xx01zvns2b_c2_elabs_scored_6.2plus_products.sdf']

>  <tags>  (32) 
syndirella_placed,openbind_xx01zvns2b_c2_elabs,openbind_xx01zvns2b_c2_elabs_scored_6.2plus,syndirella_product,openbind_xx01zvns2b_c2_elabs_scored,openbind_xx01zvns2b_c2_elabs_scored_top80percent,BulkDock Fragalysis export,openbind_xx01zvns2b_c2_elabs_scored_top80percent_despaghettified

>  <subsites>  (32) 
1 - Z4590/B/203/1

>  <smiles>  (32) 
O=C1C[C@@H](N2C(=O)c3cccc(NC(=O)c4cc(Cl)cc(NC(=O)OCc5ccccc5)c4)c3C2=O)C(=O)N1

>  <HIPPO Pose ID>  (32) 
103449

>  <energy_score>  (32) 
-35.3796

>  <inchikey>  (32) 
ZLNTUFQNOXHXEB-HXUWFJFHSA-N

>  <gnina_score_min>  (32) 
6.587

>  <gnina_score>  (32) 
6.582

>  <ref_mols>  (32) 
Z2992a

>  <HIPPO Compound ID>  (32) 
163173

>  <distance_score>  (32) 
0.91881

>  <rmsd(smina/fragmenstein)>  (32) 
1.51

>  <ref_pdb>  (32) 
Z2992a

>  <inspiration_score>  (32) 
None

$$$$
P103454
     RDKit          3D

 39 42  0  0  0  0  0  0  0  0999 V2000
   -2.5875    4.5895   -7.3507 C   0  0  0  0  0  0  0  0  0  0  0  0
   -2.5908    6.1220   -7.3801 C   0  0  0  0  0  0  0  0  0  0  0  0
   -2.5489    6.7222   -5.9705 C   0  0  0  0  0  0  0  0  0  0  0  0
   -1.3530    6.6005   -8.1541 C   0  0  0  0  0  0  0  0  0  0  0  0
   -3.7184    6.6298   -8.1379 O   0  0  0  0  0  0  0  0  0  0  0  0
   -4.9963    6.3863   -7.7409 C   0  0  0  0  0  0  0  0  0  0  0  0
   -5.2974    5.8059   -6.7823 O   0  0  0  0  0  0  0  0  0  0  0  0
   -5.8597    7.0298   -8.8186 N   0  0  0  0  0  0  0  0  0  0  0  0
   -7.3216    7.0190   -9.0087 C   0  0  0  0  0  0  0  0  0  0  0  0
   -7.7882    5.7101   -9.7969 C   0  0  0  0  0  0  0  0  0  0  0  0
   -8.2909    4.5769   -9.1310 C   0  0  0  0  0  0  0  0  0  0  0  0
   -8.6741    3.4251   -9.8200 C   0  0  0  0  0  0  0  0  0  0  0  0
   -8.5528    3.3677  -11.2051 C   0  0  0  0  0  0  0  0  0  0  0  0
   -8.0345    4.4530  -11.9009 C   0  0  0  0  0  0  0  0  0  0  0  0
   -7.8728    4.3555  -13.2815 N   0  0  0  0  0  0  0  0  0  0  0  0
   -7.3290    5.3809  -14.3044 C   0  0  0  0  0  0  0  0  0  0  0  0
   -6.8600    6.4384  -14.1403 O   0  0  0  0  0  0  0  0  0  0  0  0
   -7.4819    4.9065  -15.7029 C   0  0  0  0  0  0  0  0  0  0  0  0
   -8.7357    4.5248  -16.1778 C   0  0  0  0  0  0  0  0  0  0  0  0
   -8.9029    4.3108  -17.5423 C   0  0  0  0  0  0  0  0  0  0  0  0
  -10.4722    4.0203  -18.1667 Cl  0  0  0  0  0  0  0  0  0  0  0  0
   -7.8336    4.4381  -18.4246 C   0  0  0  0  0  0  0  0  0  0  0  0
   -6.5752    4.7931  -17.9423 C   0  0  0  0  0  0  0  0  0  0  0  0
   -5.5404    4.9456  -18.8579 N   0  0  0  0  0  0  0  0  0  0  0  0
   -4.0419    5.1492  -18.6386 C   0  0  0  0  0  0  0  0  0  0  0  0
   -3.4372    5.2994  -17.6574 O   0  0  0  0  0  0  0  0  0  0  0  0
   -3.5064    5.1418  -19.8881 O   0  0  0  0  0  0  0  0  0  0  0  0
   -2.1085    5.4497  -19.9782 C   0  0  0  0  0  0  0  0  0  0  0  0
   -1.9629    6.9265  -20.2557 C   0  0  0  0  0  0  0  0  0  0  0  0
   -1.8973    7.8469  -19.1995 C   0  0  0  0  0  0  0  0  0  0  0  0
   -1.8093    9.2160  -19.4560 C   0  0  0  0  0  0  0  0  0  0  0  0
   -1.7878    9.6790  -20.7703 C   0  0  0  0  0  0  0  0  0  0  0  0
   -1.8596    8.7741  -21.8284 C   0  0  0  0  0  0  0  0  0  0  0  0
   -1.9521    7.4046  -21.5730 C   0  0  0  0  0  0  0  0  0  0  0  0
   -6.3978    5.0353  -16.5808 C   0  0  0  0  0  0  0  0  0  0  0  0
   -7.6647    5.6060  -11.2015 C   0  0  0  0  0  0  0  0  0  0  0  0
   -7.8306    8.3918   -9.5842 C   0  0  0  0  0  0  0  0  0  0  0  0
   -7.9869    8.8904   -8.1372 C   0  0  0  0  0  0  0  0  0  0  0  0
   -8.1098    7.4176   -7.7108 C   0  0  0  0  0  0  0  0  0  0  0  0
  1  2  1  0
  2  3  1  0
  2  4  1  0
  2  5  1  0
  5  6  1  0
  6  7  2  0
  6  8  1  0
  8  9  1  0
  9 10  1  0
 10 11  2  0
 11 12  1  0
 12 13  2  0
 13 14  1  0
 14 15  1  0
 15 16  1  0
 16 17  2  0
 16 18  1  0
 18 19  2  0
 19 20  1  0
 20 21  1  0
 20 22  2  0
 22 23  1  0
 23 24  1  0
 24 25  1  0
 25 26  2  0
 25 27  1  0
 27 28  1  0
 28 29  1  0
 29 30  2  0
 30 31  1  0
 31 32  2  0
 32 33  1  0
 33 34  2  0
 23 35  2  0
 14 36  2  0
  9 37  1  0
 37 38  1  0
 38 39  1  0
 39  9  1  0
 36 10  1  0
 35 18  1  0
 34 29  1  0
M  END
>  <name>  (33) 
P103454

>  <alias>  (33) 
None

>  <smina_score_min>  (33) 
-7.763

>  <exports>  (33) 
['/opt/xchem-fragalysis-2/maxwin/BulkDock/OUTPUTS/openbind_xx01zvns2b_c2_elabs_1LOUTNY.sdf', '/opt/xchem-fragalysis-2/maxwin/BulkDock/OUTPUTS/openbind_xx01zvns2b_c2_elabs_1LSYIIV.sdf', '/opt/xchem-fragalysis-2/maxwin/openbind-hippo/xx01zvns2b/cycle_02/gnina/openbind_xx01zvns2b_c2_elabs_scored_6.2plus_products.sdf']

>  <tags>  (33) 
syndirella_placed,openbind_xx01zvns2b_c2_elabs,openbind_xx01zvns2b_c2_elabs_scored_6.2plus,syndirella_product,openbind_xx01zvns2b_c2_elabs_scored,openbind_xx01zvns2b_c2_elabs_scored_top80percent,BulkDock Fragalysis export,openbind_xx01zvns2b_c2_elabs_scored_top80percent_despaghettified

>  <subsites>  (33) 
1 - Z4590/B/203/1

>  <smiles>  (33) 
CC(C)(C)OC(=O)NC1(c2cccc(NC(=O)c3cc(Cl)cc(NC(=O)OCc4ccccc4)c3)c2)CCC1

>  <HIPPO Pose ID>  (33) 
103454

>  <energy_score>  (33) 
-68.821935

>  <inchikey>  (33) 
MUAYEUXXGOYMNE-UHFFFAOYSA-N

>  <gnina_score_min>  (33) 
6.301

>  <gnina_score>  (33) 
6.263

>  <ref_mols>  (33) 
Z2992a

>  <HIPPO Compound ID>  (33) 
163177

>  <distance_score>  (33) 
0.380226

>  <rmsd(smina/fragmenstein)>  (33) 
2.407

>  <ref_pdb>  (33) 
Z2992a

>  <inspiration_score>  (33) 
None

$$$$
P103458
     RDKit          3D

 39 42  0  0  0  0  0  0  0  0999 V2000
   -3.3490    5.0558  -17.9704 O   0  0  0  0  0  0  0  0  0  0  0  0
   -4.0355    5.0914  -18.9078 C   0  0  0  0  0  0  0  0  0  0  0  0
   -5.5556    4.9833  -19.0282 N   0  0  0  0  0  0  0  0  0  0  0  0
   -6.5217    4.7223  -18.0641 C   0  0  0  0  0  0  0  0  0  0  0  0
   -7.8419    4.5523  -18.4737 C   0  0  0  0  0  0  0  0  0  0  0  0
   -8.8390    4.2936  -17.5370 C   0  0  0  0  0  0  0  0  0  0  0  0
  -10.4588    4.1247  -18.0798 Cl  0  0  0  0  0  0  0  0  0  0  0  0
   -8.5326    4.1876  -16.1845 C   0  0  0  0  0  0  0  0  0  0  0  0
   -7.2009    4.3291  -15.7831 C   0  0  0  0  0  0  0  0  0  0  0  0
   -6.7991    4.0944  -14.3725 C   0  0  0  0  0  0  0  0  0  0  0  0
   -5.9850    3.2943  -14.1370 O   0  0  0  0  0  0  0  0  0  0  0  0
   -7.6136    4.9989  -13.4275 N   0  0  0  0  0  0  0  0  0  0  0  0
   -7.5332    5.1711  -12.0465 C   0  0  0  0  0  0  0  0  0  0  0  0
   -6.7124    4.3412  -11.2806 C   0  0  0  0  0  0  0  0  0  0  0  0
   -6.5560    4.5683   -9.9090 C   0  0  0  0  0  0  0  0  0  0  0  0
   -5.4571    3.8288   -9.1976 C   0  0  0  0  0  0  0  0  0  0  0  0
   -5.2377    2.7240   -9.4974 O   0  0  0  0  0  0  0  0  0  0  0  0
   -4.7220    4.7630   -8.2118 N   0  0  0  0  0  0  0  0  0  0  0  0
   -3.6211    4.5020   -7.3193 C   0  0  0  0  0  0  0  0  0  0  0  0
   -3.7424    5.1735   -5.9367 C   0  0  0  0  0  0  0  0  0  0  0  0
   -4.7258    4.5732   -5.0094 N   0  0  0  0  0  0  0  0  0  0  0  0
   -4.6364    5.2017   -3.6803 C   0  0  0  0  0  0  0  0  0  0  0  0
   -5.9544    4.8417   -3.0124 C   0  0  0  0  0  0  0  0  0  0  0  0
   -6.9082    4.5224   -4.1552 C   0  0  0  0  0  0  0  0  0  0  0  0
   -6.1190    4.8166   -5.4203 C   0  0  0  0  0  0  0  0  0  0  0  0
   -7.3349    5.5437   -9.2790 C   0  0  0  0  0  0  0  0  0  0  0  0
   -8.1460    6.3871  -10.0446 C   0  0  0  0  0  0  0  0  0  0  0  0
   -8.9302    7.6908   -9.2219 Cl  0  0  0  0  0  0  0  0  0  0  0  0
   -8.2309    6.2212  -11.4331 C   0  0  0  0  0  0  0  0  0  0  0  0
   -9.0781    7.3637  -12.4354 Cl  0  0  0  0  0  0  0  0  0  0  0  0
   -6.1977    4.6104  -16.7151 C   0  0  0  0  0  0  0  0  0  0  0  0
   -3.5944    5.2563  -20.1829 O   0  0  0  0  0  0  0  0  0  0  0  0
   -2.1885    5.5002  -20.3312 C   0  0  0  0  0  0  0  0  0  0  0  0
   -1.9895    6.9918  -20.4488 C   0  0  0  0  0  0  0  0  0  0  0  0
   -1.9887    7.6093  -21.7063 C   0  0  0  0  0  0  0  0  0  0  0  0
   -1.8550    8.9945  -21.8145 C   0  0  0  0  0  0  0  0  0  0  0  0
   -1.7318    9.7764  -20.6671 C   0  0  0  0  0  0  0  0  0  0  0  0
   -1.7411    9.1744  -19.4103 C   0  0  0  0  0  0  0  0  0  0  0  0
   -1.8693    7.7889  -19.3009 C   0  0  0  0  0  0  0  0  0  0  0  0
  1  2  2  0
  2  3  1  0
  3  4  1  0
  4  5  2  0
  5  6  1  0
  6  7  1  0
  6  8  2  0
  8  9  1  0
  9 10  1  0
 10 11  2  0
 10 12  1  0
 12 13  1  0
 13 14  2  0
 14 15  1  0
 15 16  1  0
 16 17  2  0
 16 18  1  0
 18 19  1  0
 19 20  1  0
 20 21  1  0
 21 22  1  0
 22 23  1  0
 23 24  1  0
 24 25  1  0
 15 26  2  0
 26 27  1  0
 27 28  1  0
 27 29  2  0
 29 30  1  0
  9 31  2  0
  2 32  1  0
 32 33  1  0
 33 34  1  0
 34 35  2  0
 35 36  1  0
 36 37  2  0
 37 38  1  0
 38 39  2  0
 31  4  1  0
 39 34  1  0
 29 13  1  0
 25 21  1  0
M  END
>  <name>  (34) 
P103458

>  <alias>  (34) 
None

>  <smina_score_min>  (34) 
-7.36

>  <exports>  (34) 
['/opt/xchem-fragalysis-2/maxwin/BulkDock/OUTPUTS/openbind_xx01zvns2b_c2_elabs_1LOUTNY.sdf', '/opt/xchem-fragalysis-2/maxwin/BulkDock/OUTPUTS/openbind_xx01zvns2b_c2_elabs_1LSYIIV.sdf', '/opt/xchem-fragalysis-2/maxwin/openbind-hippo/xx01zvns2b/cycle_02/gnina/openbind_xx01zvns2b_c2_elabs_scored_6.2plus_products.sdf']

>  <tags>  (34) 
syndirella_placed,openbind_xx01zvns2b_c2_elabs,openbind_xx01zvns2b_c2_elabs_scored_6.2plus,syndirella_product,openbind_xx01zvns2b_c2_elabs_scored,openbind_xx01zvns2b_c2_elabs_scored_top80percent,BulkDock Fragalysis export,openbind_xx01zvns2b_c2_elabs_scored_top80percent_despaghettified

>  <subsites>  (34) 
1 - Z4590/B/203/1

>  <smiles>  (34) 
O=C(Nc1cc(Cl)cc(C(=O)Nc2cc(C(=O)NCCN3CCCC3)cc(Cl)c2Cl)c1)OCc1ccccc1

>  <HIPPO Pose ID>  (34) 
103458

>  <energy_score>  (34) 
-9.868147

>  <inchikey>  (34) 
GWYKIFJNZUBSLX-UHFFFAOYSA-N

>  <gnina_score_min>  (34) 
6.425

>  <gnina_score>  (34) 
6.439

>  <ref_mols>  (34) 
Z2992a

>  <HIPPO Compound ID>  (34) 
163182

>  <distance_score>  (34) 
1.446076

>  <rmsd(smina/fragmenstein)>  (34) 
2.235

>  <ref_pdb>  (34) 
Z2992a

>  <inspiration_score>  (34) 
None

$$$$
P103460
     RDKit          3D

 39 42  0  0  0  0  0  0  0  0999 V2000
   -7.6979    3.0998  -11.2191 C   0  0  0  0  0  0  0  0  0  0  0  0
   -7.9052    4.5714  -11.0031 C   0  0  0  0  0  0  0  0  0  0  0  0
   -7.9135    5.4983  -12.0728 C   0  0  0  0  0  0  0  0  0  0  0  0
   -7.7874    5.2432  -13.4439 N   0  0  0  0  0  0  0  0  0  0  0  0
   -7.0563    4.1081  -14.1888 C   0  0  0  0  0  0  0  0  0  0  0  0
   -6.3803    3.2509  -13.7824 O   0  0  0  0  0  0  0  0  0  0  0  0
   -7.3121    4.2673  -15.6464 C   0  0  0  0  0  0  0  0  0  0  0  0
   -8.6211    4.1581  -16.1273 C   0  0  0  0  0  0  0  0  0  0  0  0
   -8.8512    4.2741  -17.4924 C   0  0  0  0  0  0  0  0  0  0  0  0
  -10.4437    4.1431  -18.1191 Cl  0  0  0  0  0  0  0  0  0  0  0  0
   -7.7983    4.5206  -18.3679 C   0  0  0  0  0  0  0  0  0  0  0  0
   -6.4974    4.6572  -17.8812 C   0  0  0  0  0  0  0  0  0  0  0  0
   -5.4868    4.8927  -18.8060 N   0  0  0  0  0  0  0  0  0  0  0  0
   -3.9854    5.0917  -18.6071 C   0  0  0  0  0  0  0  0  0  0  0  0
   -3.3578    5.1677  -17.6320 O   0  0  0  0  0  0  0  0  0  0  0  0
   -3.4868    5.2055  -19.8659 O   0  0  0  0  0  0  0  0  0  0  0  0
   -2.0876    5.4983  -19.9742 C   0  0  0  0  0  0  0  0  0  0  0  0
   -1.9426    6.9778  -20.2318 C   0  0  0  0  0  0  0  0  0  0  0  0
   -1.8960    7.8838  -19.1625 C   0  0  0  0  0  0  0  0  0  0  0  0
   -1.8070    9.2561  -19.4003 C   0  0  0  0  0  0  0  0  0  0  0  0
   -1.7671    9.7362  -20.7082 C   0  0  0  0  0  0  0  0  0  0  0  0
   -1.8206    8.8453  -21.7791 C   0  0  0  0  0  0  0  0  0  0  0  0
   -1.9131    7.4726  -21.5428 C   0  0  0  0  0  0  0  0  0  0  0  0
   -6.2483    4.5316  -16.5144 C   0  0  0  0  0  0  0  0  0  0  0  0
   -8.1567    6.8621  -11.8263 C   0  0  0  0  0  0  0  0  0  0  0  0
   -8.3630    7.3483  -10.5497 C   0  0  0  0  0  0  0  0  0  0  0  0
   -8.3762    6.4584   -9.4971 C   0  0  0  0  0  0  0  0  0  0  0  0
   -8.1441    5.0816   -9.6994 C   0  0  0  0  0  0  0  0  0  0  0  0
   -8.5076    4.2711   -8.4886 C   0  0  0  0  0  0  0  0  0  0  0  0
   -9.2489    3.3820   -8.6122 O   0  0  0  0  0  0  0  0  0  0  0  0
   -7.8639    4.8682   -7.2174 N   0  0  0  0  0  0  0  0  0  0  0  0
   -8.0741    4.5548   -5.8264 C   0  0  1  0  0  0  0  0  0  0  0  0
   -9.1688    3.5236   -5.5979 C   0  0  0  0  0  0  0  0  0  0  0  0
   -9.6395    3.6063   -4.1589 C   0  0  0  0  0  0  0  0  0  0  0  0
   -8.5084    3.6090   -3.1575 C   0  0  0  0  0  0  0  0  0  0  0  0
   -8.6945    3.4132   -1.9569 O   0  0  0  0  0  0  0  0  0  0  0  0
   -7.2533    3.9233   -3.6210 N   0  0  0  0  0  0  0  0  0  0  0  0
   -6.8824    4.2225   -4.9194 C   0  0  0  0  0  0  0  0  0  0  0  0
   -5.6898    4.2972   -5.2141 O   0  0  0  0  0  0  0  0  0  0  0  0
  1  2  1  0
  2  3  2  0
  3  4  1  0
  4  5  1  0
  5  6  2  0
  5  7  1  0
  7  8  2  0
  8  9  1  0
  9 10  1  0
  9 11  2  0
 11 12  1  0
 12 13  1  0
 13 14  1  0
 14 15  2  0
 14 16  1  0
 16 17  1  0
 17 18  1  0
 18 19  2  0
 19 20  1  0
 20 21  2  0
 21 22  1  0
 22 23  2  0
 12 24  2  0
  3 25  1  0
 25 26  2  0
 26 27  1  0
 27 28  2  0
 28 29  1  0
 29 30  2  0
 29 31  1  0
 32 31  1  6
 32 33  1  0
 33 34  1  0
 34 35  1  0
 35 36  2  0
 35 37  1  0
 37 38  1  0
 38 39  2  0
 28  2  1  0
 38 32  1  0
 24  7  1  0
 23 18  1  0
M  END
>  <name>  (35) 
P103460

>  <alias>  (35) 
None

>  <smina_score_min>  (35) 
-8.585

>  <exports>  (35) 
['/opt/xchem-fragalysis-2/maxwin/BulkDock/OUTPUTS/openbind_xx01zvns2b_c2_elabs_1LOUTNY.sdf', '/opt/xchem-fragalysis-2/maxwin/BulkDock/OUTPUTS/openbind_xx01zvns2b_c2_elabs_1LSYIIV.sdf', '/opt/xchem-fragalysis-2/maxwin/openbind-hippo/xx01zvns2b/cycle_02/gnina/openbind_xx01zvns2b_c2_elabs_scored_6.2plus_products.sdf']

>  <tags>  (35) 
syndirella_placed,openbind_xx01zvns2b_c2_elabs,openbind_xx01zvns2b_c2_elabs_scored_6.2plus,syndirella_product,openbind_xx01zvns2b_c2_elabs_scored,openbind_xx01zvns2b_c2_elabs_scored_top80percent,BulkDock Fragalysis export,openbind_xx01zvns2b_c2_elabs_scored_top80percent_despaghettified

>  <subsites>  (35) 
1 - Z4590/B/203/1

>  <smiles>  (35) 
Cc1c(NC(=O)c2cc(Cl)cc(NC(=O)OCc3ccccc3)c2)cccc1C(=O)N[C@H]1CCC(=O)NC1=O

>  <HIPPO Pose ID>  (35) 
103460

>  <energy_score>  (35) 
-24.590806

>  <inchikey>  (35) 
CONSOCYHSASDRY-QHCPKHFHSA-N

>  <gnina_score_min>  (35) 
6.349

>  <gnina_score>  (35) 
6.161

>  <ref_mols>  (35) 
Z2992a

>  <HIPPO Compound ID>  (35) 
163185

>  <distance_score>  (35) 
1.066525

>  <rmsd(smina/fragmenstein)>  (35) 
1.253

>  <ref_pdb>  (35) 
Z2992a

>  <inspiration_score>  (35) 
None

$$$$
P103461
     RDKit          3D

 39 43  0  0  0  0  0  0  0  0999 V2000
   -7.9192    1.6181   -8.6636 C   0  0  0  0  0  0  0  0  0  0  0  0
   -6.8721    2.2832   -9.5601 C   0  0  2  0  0  0  0  0  0  0  0  0
   -6.0576    1.4988  -10.5503 C   0  0  0  0  0  0  0  0  0  0  0  0
   -4.7105    0.8901  -10.2134 C   0  0  0  0  0  0  0  0  0  0  0  0
   -5.9011    0.0193  -10.4393 C   0  0  0  0  0  0  0  0  0  0  0  0
   -6.0031    3.0888   -8.7387 N   0  0  0  0  0  0  0  0  0  0  0  0
   -6.5865    4.3180   -8.5363 C   0  0  0  0  0  0  0  0  0  0  0  0
   -6.2180    5.0758   -7.6503 O   0  0  0  0  0  0  0  0  0  0  0  0
   -7.5583    4.4728   -9.4922 N   0  0  0  0  0  0  0  0  0  0  0  0
   -8.1702    5.6722   -9.7961 C   0  0  0  0  0  0  0  0  0  0  0  0
   -8.4971    6.5742   -8.7970 C   0  0  0  0  0  0  0  0  0  0  0  0
   -8.9970    7.8157   -9.1478 C   0  0  0  0  0  0  0  0  0  0  0  0
   -9.1321    8.1588  -10.4937 C   0  0  0  0  0  0  0  0  0  0  0  0
   -8.8030    7.2558  -11.5115 C   0  0  0  0  0  0  0  0  0  0  0  0
   -8.9066    7.6663  -12.9426 C   0  0  0  0  0  0  0  0  0  0  0  0
   -8.6304    6.6693  -13.9539 N   0  0  0  0  0  0  0  0  0  0  0  0
   -7.2992    5.9982  -14.3656 C   0  0  0  0  0  0  0  0  0  0  0  0
   -6.2327    6.0880  -13.9020 O   0  0  0  0  0  0  0  0  0  0  0  0
   -7.4453    5.1860  -15.6341 C   0  0  0  0  0  0  0  0  0  0  0  0
   -8.6618    4.6713  -16.0895 C   0  0  0  0  0  0  0  0  0  0  0  0
   -8.7949    4.3210  -17.4344 C   0  0  0  0  0  0  0  0  0  0  0  0
  -10.3450    3.9553  -18.0770 Cl  0  0  0  0  0  0  0  0  0  0  0  0
   -7.7133    4.3869  -18.3067 C   0  0  0  0  0  0  0  0  0  0  0  0
   -6.4673    4.7792  -17.8289 C   0  0  0  0  0  0  0  0  0  0  0  0
   -5.4027    4.7980  -18.7246 N   0  0  0  0  0  0  0  0  0  0  0  0
   -3.9476    5.2197  -18.5288 C   0  0  0  0  0  0  0  0  0  0  0  0
   -3.3806    5.5479  -17.5691 O   0  0  0  0  0  0  0  0  0  0  0  0
   -3.3960    5.1458  -19.7700 O   0  0  0  0  0  0  0  0  0  0  0  0
   -2.0199    5.5360  -19.8686 C   0  0  0  0  0  0  0  0  0  0  0  0
   -1.9466    7.0039  -20.2116 C   0  0  0  0  0  0  0  0  0  0  0  0
   -1.8768    7.9691  -19.1969 C   0  0  0  0  0  0  0  0  0  0  0  0
   -1.8433    9.3282  -19.5115 C   0  0  0  0  0  0  0  0  0  0  0  0
   -1.8817    9.7362  -20.8433 C   0  0  0  0  0  0  0  0  0  0  0  0
   -1.9600    8.7859  -21.8606 C   0  0  0  0  0  0  0  0  0  0  0  0
   -1.9981    7.4261  -21.5469 C   0  0  0  0  0  0  0  0  0  0  0  0
   -6.3329    5.1765  -16.4983 C   0  0  0  0  0  0  0  0  0  0  0  0
   -8.3451    6.0082  -11.1400 C   0  0  0  0  0  0  0  0  0  0  0  0
   -7.6699    3.3498  -10.2665 C   0  0  0  0  0  0  0  0  0  0  0  0
   -8.3487    3.1645  -11.2709 O   0  0  0  0  0  0  0  0  0  0  0  0
  2  1  1  1
  2  3  1  0
  3  4  1  0
  4  5  1  0
  2  6  1  0
  6  7  1  0
  7  8  2  0
  7  9  1  0
  9 10  1  0
 10 11  2  0
 11 12  1  0
 12 13  2  0
 13 14  1  0
 14 15  1  0
 15 16  1  0
 16 17  1  0
 17 18  2  0
 17 19  1  0
 19 20  2  0
 20 21  1  0
 21 22  1  0
 21 23  2  0
 23 24  1  0
 24 25  1  0
 25 26  1  0
 26 27  2  0
 26 28  1  0
 28 29  1  0
 29 30  1  0
 30 31  2  0
 31 32  1  0
 32 33  2  0
 33 34  1  0
 34 35  2  0
 24 36  2  0
 14 37  2  0
  9 38  1  0
 38 39  2  0
 38  2  1  0
  5  3  1  0
 37 10  1  0
 36 19  1  0
 35 30  1  0
M  END
>  <name>  (36) 
P103461

>  <alias>  (36) 
None

>  <smina_score_min>  (36) 
-6.416

>  <exports>  (36) 
['/opt/xchem-fragalysis-2/maxwin/BulkDock/OUTPUTS/openbind_xx01zvns2b_c2_elabs_1LOUTNY.sdf', '/opt/xchem-fragalysis-2/maxwin/BulkDock/OUTPUTS/openbind_xx01zvns2b_c2_elabs_1LSYIIV.sdf', '/opt/xchem-fragalysis-2/maxwin/openbind-hippo/xx01zvns2b/cycle_02/gnina/openbind_xx01zvns2b_c2_elabs_scored_6.2plus_products.sdf']

>  <tags>  (36) 
syndirella_placed,openbind_xx01zvns2b_c2_elabs,openbind_xx01zvns2b_c2_elabs_scored_6.2plus,syndirella_product,openbind_xx01zvns2b_c2_elabs_scored,openbind_xx01zvns2b_c2_elabs_scored_top80percent,BulkDock Fragalysis export,openbind_xx01zvns2b_c2_elabs_scored_top80percent_despaghettified

>  <subsites>  (36) 
1 - Z4590/B/203/1

>  <smiles>  (36) 
C[C@]1(C2CC2)NC(=O)N(c2cccc(CNC(=O)c3cc(Cl)cc(NC(=O)OCc4ccccc4)c3)c2)C1=O

>  <HIPPO Pose ID>  (36) 
103461

>  <energy_score>  (36) 
-30.706702

>  <inchikey>  (36) 
LBVQCQBXWODNMV-GDLZYMKVSA-N

>  <gnina_score_min>  (36) 
6.415

>  <gnina_score>  (36) 
6.363

>  <ref_mols>  (36) 
Z2992a

>  <HIPPO Compound ID>  (36) 
163187

>  <distance_score>  (36) 
1.715102

>  <rmsd(smina/fragmenstein)>  (36) 
1.104

>  <ref_pdb>  (36) 
Z2992a

>  <inspiration_score>  (36) 
None

$$$$
P103463
     RDKit          3D

 39 42  0  0  0  0  0  0  0  0999 V2000
   -9.3539   11.9379  -14.2896 C   0  0  0  0  0  0  0  0  0  0  0  0
   -8.0856   12.1157  -13.4487 C   0  0  0  0  0  0  0  0  0  0  0  0
   -6.8121   11.9867  -14.2923 C   0  0  0  0  0  0  0  0  0  0  0  0
   -8.1099   13.5152  -12.8147 C   0  0  0  0  0  0  0  0  0  0  0  0
   -8.0881   11.2016  -12.3228 O   0  0  0  0  0  0  0  0  0  0  0  0
   -7.9978    9.8555  -12.5101 C   0  0  0  0  0  0  0  0  0  0  0  0
   -7.8829    9.3333  -13.5398 O   0  0  0  0  0  0  0  0  0  0  0  0
   -8.0902    9.2660  -11.1069 N   0  0  0  0  0  0  0  0  0  0  0  0
   -8.1543    7.9402  -10.6838 C   0  0  0  0  0  0  0  0  0  0  0  0
   -8.4607    7.7236   -9.3410 C   0  0  0  0  0  0  0  0  0  0  0  0
   -8.5403    6.4273   -8.8496 C   0  0  0  0  0  0  0  0  0  0  0  0
   -8.3122    5.3437   -9.6914 C   0  0  0  0  0  0  0  0  0  0  0  0
   -7.9766    5.5296  -11.0412 C   0  0  0  0  0  0  0  0  0  0  0  0
   -7.9037    6.8504  -11.5284 C   0  0  0  0  0  0  0  0  0  0  0  0
   -7.5848    4.3083  -11.8439 C   0  0  2  0  0  0  0  0  0  0  0  0
   -7.7334    4.3952  -13.2822 N   0  0  0  0  0  0  0  0  0  0  0  0
   -6.8759    5.1208  -14.3336 C   0  0  0  0  0  0  0  0  0  0  0  0
   -5.9581    5.8271  -14.2029 O   0  0  0  0  0  0  0  0  0  0  0  0
   -7.2781    4.8053  -15.7463 C   0  0  0  0  0  0  0  0  0  0  0  0
   -8.5901    4.5395  -16.1467 C   0  0  0  0  0  0  0  0  0  0  0  0
   -8.8636    4.3556  -17.5057 C   0  0  0  0  0  0  0  0  0  0  0  0
  -10.4767    4.1032  -18.0429 Cl  0  0  0  0  0  0  0  0  0  0  0  0
   -7.8574    4.4453  -18.4652 C   0  0  0  0  0  0  0  0  0  0  0  0
   -6.5508    4.7038  -18.0709 C   0  0  0  0  0  0  0  0  0  0  0  0
   -5.5633    4.7973  -19.0459 N   0  0  0  0  0  0  0  0  0  0  0  0
   -4.0609    5.0533  -18.9177 C   0  0  0  0  0  0  0  0  0  0  0  0
   -3.3908    5.1516  -17.9730 O   0  0  0  0  0  0  0  0  0  0  0  0
   -3.6080    5.1651  -20.1961 O   0  0  0  0  0  0  0  0  0  0  0  0
   -2.2109    5.4649  -20.3326 C   0  0  0  0  0  0  0  0  0  0  0  0
   -2.0433    6.9594  -20.4688 C   0  0  0  0  0  0  0  0  0  0  0  0
   -2.0489    7.5612  -21.7339 C   0  0  0  0  0  0  0  0  0  0  0  0
   -1.9272    8.9463  -21.8601 C   0  0  0  0  0  0  0  0  0  0  0  0
   -1.8101    9.7444  -20.7232 C   0  0  0  0  0  0  0  0  0  0  0  0
   -1.8147    9.1586  -19.4590 C   0  0  0  0  0  0  0  0  0  0  0  0
   -1.9304    7.7734  -19.3320 C   0  0  0  0  0  0  0  0  0  0  0  0
   -6.2633    4.8725  -16.7183 C   0  0  0  0  0  0  0  0  0  0  0  0
   -8.3118    3.0859  -11.3039 C   0  0  0  0  0  0  0  0  0  0  0  0
   -8.0525    2.9843   -9.8140 C   0  0  0  0  0  0  0  0  0  0  0  0
   -8.4771    4.1318   -9.0832 O   0  0  0  0  0  0  0  0  0  0  0  0
  1  2  1  0
  2  3  1  0
  2  4  1  0
  2  5  1  0
  5  6  1  0
  6  7  2  0
  6  8  1  0
  8  9  1  0
  9 10  2  0
 10 11  1  0
 11 12  2  0
 12 13  1  0
 13 14  2  0
 13 15  1  0
 15 16  1  6
 16 17  1  0
 17 18  2  0
 17 19  1  0
 19 20  2  0
 20 21  1  0
 21 22  1  0
 21 23  2  0
 23 24  1  0
 24 25  1  0
 25 26  1  0
 26 27  2  0
 26 28  1  0
 28 29  1  0
 29 30  1  0
 30 31  2  0
 31 32  1  0
 32 33  2  0
 33 34  1  0
 34 35  2  0
 24 36  2  0
 15 37  1  0
 37 38  1  0
 38 39  1  0
 14  9  1  0
 36 19  1  0
 39 12  1  0
 35 30  1  0
M  END
>  <name>  (37) 
P103463

>  <alias>  (37) 
None

>  <smina_score_min>  (37) 
-7.359

>  <exports>  (37) 
['/opt/xchem-fragalysis-2/maxwin/BulkDock/OUTPUTS/openbind_xx01zvns2b_c2_elabs_1LOUTNY.sdf', '/opt/xchem-fragalysis-2/maxwin/BulkDock/OUTPUTS/openbind_xx01zvns2b_c2_elabs_1LSYIIV.sdf', '/opt/xchem-fragalysis-2/maxwin/openbind-hippo/xx01zvns2b/cycle_02/gnina/openbind_xx01zvns2b_c2_elabs_scored_6.2plus_products.sdf']

>  <tags>  (37) 
syndirella_placed,openbind_xx01zvns2b_c2_elabs,openbind_xx01zvns2b_c2_elabs_scored_6.2plus,syndirella_product,openbind_xx01zvns2b_c2_elabs_scored,openbind_xx01zvns2b_c2_elabs_scored_top80percent,BulkDock Fragalysis export,openbind_xx01zvns2b_c2_elabs_scored_top80percent_despaghettified

>  <subsites>  (37) 
1 - Z4590/B/203/1

>  <smiles>  (37) 
CC(C)(C)OC(=O)Nc1ccc2c(c1)[C@H](NC(=O)c1cc(Cl)cc(NC(=O)OCc3ccccc3)c1)CCO2

>  <HIPPO Pose ID>  (37) 
103463

>  <energy_score>  (37) 
-54.987983

>  <inchikey>  (37) 
YRIXWHAKENWHFV-XMMPIXPASA-N

>  <gnina_score_min>  (37) 
6.438

>  <gnina_score>  (37) 
6.44

>  <ref_mols>  (37) 
Z2992a

>  <HIPPO Compound ID>  (37) 
163189

>  <distance_score>  (37) 
0.688424

>  <rmsd(smina/fragmenstein)>  (37) 
1.679

>  <ref_pdb>  (37) 
Z2992a

>  <inspiration_score>  (37) 
None

$$$$
P103465
     RDKit          3D

 39 42  0  0  0  0  0  0  0  0999 V2000
  -10.2467    2.1406   -6.7085 C   0  0  0  0  0  0  0  0  0  0  0  0
   -9.7693    3.1805   -5.7090 C   0  0  0  0  0  0  0  0  0  0  0  0
  -10.3304    2.7987   -4.3348 C   0  0  0  0  0  0  0  0  0  0  0  0
  -10.2893    4.5849   -5.9609 C   0  0  0  0  0  0  0  0  0  0  0  0
   -8.3288    3.2054   -5.5771 O   0  0  0  0  0  0  0  0  0  0  0  0
   -7.4146    3.6059   -6.4947 C   0  0  0  0  0  0  0  0  0  0  0  0
   -6.4294    4.2483   -6.1042 O   0  0  0  0  0  0  0  0  0  0  0  0
   -7.5583    3.1569   -7.9844 C   0  0  0  0  0  0  0  0  0  0  0  0
   -8.1456    4.0741   -8.9387 N   0  0  0  0  0  0  0  0  0  0  0  0
   -8.0404    3.8955  -10.4140 C   0  0  0  0  0  0  0  0  0  0  0  0
   -8.2860    5.2843  -10.9415 C   0  0  0  0  0  0  0  0  0  0  0  0
   -8.4310    5.8867  -12.1784 C   0  0  0  0  0  0  0  0  0  0  0  0
   -8.2969    5.3553  -13.4549 N   0  0  0  0  0  0  0  0  0  0  0  0
   -7.5042    4.1338  -13.9510 C   0  0  0  0  0  0  0  0  0  0  0  0
   -6.9009    3.3350  -13.3586 O   0  0  0  0  0  0  0  0  0  0  0  0
   -7.5653    4.1767  -15.4488 C   0  0  0  0  0  0  0  0  0  0  0  0
   -8.8189    4.0830  -16.0633 C   0  0  0  0  0  0  0  0  0  0  0  0
   -8.9262    4.2255  -17.4396 C   0  0  0  0  0  0  0  0  0  0  0  0
  -10.4643    4.1485  -18.1931 Cl  0  0  0  0  0  0  0  0  0  0  0  0
   -7.7985    4.4762  -18.2095 C   0  0  0  0  0  0  0  0  0  0  0  0
   -6.5465    4.5946  -17.5987 C   0  0  0  0  0  0  0  0  0  0  0  0
   -5.4685    4.8400  -18.4425 N   0  0  0  0  0  0  0  0  0  0  0  0
   -3.9931    5.0680  -18.1266 C   0  0  0  0  0  0  0  0  0  0  0  0
   -3.4473    5.1646  -17.1058 O   0  0  0  0  0  0  0  0  0  0  0  0
   -3.4079    5.1772  -19.3466 O   0  0  0  0  0  0  0  0  0  0  0  0
   -2.0183    5.5224  -19.3794 C   0  0  0  0  0  0  0  0  0  0  0  0
   -1.9210    6.9530  -19.8480 C   0  0  0  0  0  0  0  0  0  0  0  0
   -1.8397    7.2548  -21.2147 C   0  0  0  0  0  0  0  0  0  0  0  0
   -1.7879    8.5824  -21.6441 C   0  0  0  0  0  0  0  0  0  0  0  0
   -1.8256    9.6194  -20.7131 C   0  0  0  0  0  0  0  0  0  0  0  0
   -1.9193    9.3305  -19.3526 C   0  0  0  0  0  0  0  0  0  0  0  0
   -1.9712    8.0039  -18.9217 C   0  0  0  0  0  0  0  0  0  0  0  0
   -6.4233    4.4531  -16.2118 C   0  0  0  0  0  0  0  0  0  0  0  0
   -8.7460    7.2675  -12.2223 C   0  0  0  0  0  0  0  0  0  0  0  0
   -8.8636    8.0588  -11.0790 C   0  0  0  0  0  0  0  0  0  0  0  0
   -8.6846    7.4806   -9.8489 C   0  0  0  0  0  0  0  0  0  0  0  0
   -8.4105    6.1278   -9.8332 C   0  0  0  0  0  0  0  0  0  0  0  0
   -8.1961    5.4018   -8.6146 C   0  0  0  0  0  0  0  0  0  0  0  0
   -8.0849    5.9714   -7.5469 O   0  0  0  0  0  0  0  0  0  0  0  0
  1  2  1  0
  2  3  1  0
  2  4  1  0
  2  5  1  0
  5  6  1  0
  6  7  2  0
  6  8  1  0
  8  9  1  0
  9 10  1  0
 10 11  1  0
 11 12  2  0
 12 13  1  0
 13 14  1  0
 14 15  2  0
 14 16  1  0
 16 17  2  0
 17 18  1  0
 18 19  1  0
 18 20  2  0
 20 21  1  0
 21 22  1  0
 22 23  1  0
 23 24  2  0
 23 25  1  0
 25 26  1  0
 26 27  1  0
 27 28  2  0
 28 29  1  0
 29 30  2  0
 30 31  1  0
 31 32  2  0
 21 33  2  0
 12 34  1  0
 34 35  2  0
 35 36  1  0
 36 37  2  0
 37 38  1  0
 38 39  2  0
 38  9  1  0
 37 11  1  0
 33 16  1  0
 32 27  1  0
M  END
>  <name>  (38) 
P103465

>  <alias>  (38) 
None

>  <smina_score_min>  (38) 
-7.899

>  <exports>  (38) 
['/opt/xchem-fragalysis-2/maxwin/BulkDock/OUTPUTS/openbind_xx01zvns2b_c2_elabs_1LOUTNY.sdf', '/opt/xchem-fragalysis-2/maxwin/BulkDock/OUTPUTS/openbind_xx01zvns2b_c2_elabs_1LSYIIV.sdf', '/opt/xchem-fragalysis-2/maxwin/openbind-hippo/xx01zvns2b/cycle_02/gnina/openbind_xx01zvns2b_c2_elabs_scored_6.2plus_products.sdf']

>  <tags>  (38) 
syndirella_placed,openbind_xx01zvns2b_c2_elabs,openbind_xx01zvns2b_c2_elabs_scored_6.2plus,syndirella_product,openbind_xx01zvns2b_c2_elabs_scored,openbind_xx01zvns2b_c2_elabs_scored_top80percent,BulkDock Fragalysis export,openbind_xx01zvns2b_c2_elabs_scored_top80percent_despaghettified

>  <subsites>  (38) 
1 - Z4590/B/203/1

>  <smiles>  (38) 
CC(C)(C)OC(=O)CN1Cc2c(NC(=O)c3cc(Cl)cc(NC(=O)OCc4ccccc4)c3)cccc2C1=O

>  <HIPPO Pose ID>  (38) 
103465

>  <energy_score>  (38) 
-0.27524

>  <inchikey>  (38) 
CHQRMBYFQZYKJF-UHFFFAOYSA-N

>  <gnina_score_min>  (38) 
6.209

>  <gnina_score>  (38) 
6.231

>  <ref_mols>  (38) 
Z2992a

>  <HIPPO Compound ID>  (38) 
163193

>  <distance_score>  (38) 
1.324171

>  <rmsd(smina/fragmenstein)>  (38) 
1.818

>  <ref_pdb>  (38) 
Z2992a

>  <inspiration_score>  (38) 
None

$$$$
P103469
     RDKit          3D

 39 42  0  0  0  0  0  0  0  0999 V2000
   -5.1983    3.4928   -8.7286 C   0  0  0  0  0  0  0  0  0  0  0  0
   -6.2543    2.7190   -9.3511 N   0  0  0  0  0  0  0  0  0  0  0  0
   -5.9360    1.6042  -10.2337 C   0  0  0  0  0  0  0  0  0  0  0  0
   -4.6504    1.7622  -11.0121 C   0  0  0  0  0  0  0  0  0  0  0  0
   -4.5471    2.6925  -12.0562 C   0  0  0  0  0  0  0  0  0  0  0  0
   -3.3439    2.8529  -12.7459 C   0  0  0  0  0  0  0  0  0  0  0  0
   -2.2329    2.0851  -12.3997 C   0  0  0  0  0  0  0  0  0  0  0  0
   -2.3259    1.1477  -11.3752 C   0  0  0  0  0  0  0  0  0  0  0  0
   -3.5274    0.9876  -10.6855 C   0  0  0  0  0  0  0  0  0  0  0  0
   -7.5686    3.0695   -9.0828 C   0  0  0  0  0  0  0  0  0  0  0  0
   -8.2718    2.6495   -8.1774 O   0  0  0  0  0  0  0  0  0  0  0  0
   -8.0799    4.1357   -9.9550 C   0  0  0  0  0  0  0  0  0  0  0  0
   -8.2479    5.3962   -9.3801 C   0  0  0  0  0  0  0  0  0  0  0  0
   -8.4287    6.4964  -10.2079 C   0  0  0  0  0  0  0  0  0  0  0  0
   -8.3938    6.3363  -11.5980 C   0  0  0  0  0  0  0  0  0  0  0  0
   -8.7405    7.7451  -12.5362 Cl  0  0  0  0  0  0  0  0  0  0  0  0
   -8.2260    5.0585  -12.1608 C   0  0  0  0  0  0  0  0  0  0  0  0
   -8.0034    4.7984  -13.5096 N   0  0  0  0  0  0  0  0  0  0  0  0
   -7.3071    5.6473  -14.5915 C   0  0  0  0  0  0  0  0  0  0  0  0
   -6.7426    6.6642  -14.5074 O   0  0  0  0  0  0  0  0  0  0  0  0
   -7.4505    5.0383  -15.9332 C   0  0  0  0  0  0  0  0  0  0  0  0
   -8.7040    4.6153  -16.3677 C   0  0  0  0  0  0  0  0  0  0  0  0
   -8.8799    4.3119  -17.7107 C   0  0  0  0  0  0  0  0  0  0  0  0
  -10.4631    3.9964  -18.2756 Cl  0  0  0  0  0  0  0  0  0  0  0  0
   -7.8189    4.3861  -18.6096 C   0  0  0  0  0  0  0  0  0  0  0  0
   -6.5584    4.7763  -18.1600 C   0  0  0  0  0  0  0  0  0  0  0  0
   -5.5245    4.9061  -19.0795 N   0  0  0  0  0  0  0  0  0  0  0  0
   -4.0242    5.1102  -18.8659 C   0  0  0  0  0  0  0  0  0  0  0  0
   -3.4179    5.2797  -17.8884 O   0  0  0  0  0  0  0  0  0  0  0  0
   -3.4869    5.0969  -20.1153 O   0  0  0  0  0  0  0  0  0  0  0  0
   -2.0935    5.4288  -20.1961 C   0  0  0  0  0  0  0  0  0  0  0  0
   -1.9597    6.9201  -20.3975 C   0  0  0  0  0  0  0  0  0  0  0  0
   -1.8606    7.7856  -19.2982 C   0  0  0  0  0  0  0  0  0  0  0  0
   -1.7853    9.1668  -19.4859 C   0  0  0  0  0  0  0  0  0  0  0  0
   -1.8081    9.6970  -20.7743 C   0  0  0  0  0  0  0  0  0  0  0  0
   -1.9126    8.8475  -21.8745 C   0  0  0  0  0  0  0  0  0  0  0  0
   -1.9938    7.4663  -21.6875 C   0  0  0  0  0  0  0  0  0  0  0  0
   -6.3716    5.1021  -16.8191 C   0  0  0  0  0  0  0  0  0  0  0  0
   -8.1567    3.9452  -11.3302 C   0  0  0  0  0  0  0  0  0  0  0  0
  1  2  1  0
  2  3  1  0
  3  4  1  0
  4  5  2  0
  5  6  1  0
  6  7  2  0
  7  8  1  0
  8  9  2  0
  2 10  1  0
 10 11  2  0
 10 12  1  0
 12 13  2  0
 13 14  1  0
 14 15  2  0
 15 16  1  0
 15 17  1  0
 17 18  1  0
 18 19  1  0
 19 20  2  0
 19 21  1  0
 21 22  2  0
 22 23  1  0
 23 24  1  0
 23 25  2  0
 25 26  1  0
 26 27  1  0
 27 28  1  0
 28 29  2  0
 28 30  1  0
 30 31  1  0
 31 32  1  0
 32 33  2  0
 33 34  1  0
 34 35  2  0
 35 36  1  0
 36 37  2  0
 26 38  2  0
 17 39  2  0
  9  4  1  0
 39 12  1  0
 38 21  1  0
 37 32  1  0
M  END
>  <name>  (39) 
P103469

>  <alias>  (39) 
None

>  <smina_score_min>  (39) 
-7.907

>  <exports>  (39) 
['/opt/xchem-fragalysis-2/maxwin/BulkDock/OUTPUTS/openbind_xx01zvns2b_c2_elabs_1LOUTNY.sdf', '/opt/xchem-fragalysis-2/maxwin/BulkDock/OUTPUTS/openbind_xx01zvns2b_c2_elabs_1LSYIIV.sdf', '/opt/xchem-fragalysis-2/maxwin/openbind-hippo/xx01zvns2b/cycle_02/gnina/openbind_xx01zvns2b_c2_elabs_scored_6.2plus_products.sdf']

>  <tags>  (39) 
syndirella_placed,openbind_xx01zvns2b_c2_elabs,openbind_xx01zvns2b_c2_elabs_scored_6.2plus,syndirella_product,openbind_xx01zvns2b_c2_elabs_scored,openbind_xx01zvns2b_c2_elabs_scored_top80percent,BulkDock Fragalysis export,openbind_xx01zvns2b_c2_elabs_scored_top80percent_despaghettified

>  <subsites>  (39) 
1 - Z4590/B/203/1

>  <smiles>  (39) 
CN(Cc1ccccc1)C(=O)c1ccc(Cl)c(NC(=O)c2cc(Cl)cc(NC(=O)OCc3ccccc3)c2)c1

>  <HIPPO Pose ID>  (39) 
103469

>  <energy_score>  (39) 
-0.748618

>  <inchikey>  (39) 
ZNGXJCWSCJPJJY-UHFFFAOYSA-N

>  <gnina_score_min>  (39) 
6.856

>  <gnina_score>  (39) 
6.749

>  <ref_mols>  (39) 
Z2992a

>  <HIPPO Compound ID>  (39) 
163200

>  <distance_score>  (39) 
0.750917

>  <rmsd(smina/fragmenstein)>  (39) 
1.226

>  <ref_pdb>  (39) 
Z2992a

>  <inspiration_score>  (39) 
None

$$$$
P103470
     RDKit          3D

 39 42  0  0  0  0  0  0  0  0999 V2000
   -3.3510    5.1556  -17.9896 O   0  0  0  0  0  0  0  0  0  0  0  0
   -4.0019    5.0337  -18.9438 C   0  0  0  0  0  0  0  0  0  0  0  0
   -5.4996    4.7738  -19.0950 N   0  0  0  0  0  0  0  0  0  0  0  0
   -6.5057    4.7036  -18.1381 C   0  0  0  0  0  0  0  0  0  0  0  0
   -7.7849    4.3402  -18.5457 C   0  0  0  0  0  0  0  0  0  0  0  0
   -8.8217    4.3236  -17.6194 C   0  0  0  0  0  0  0  0  0  0  0  0
  -10.4203    4.0113  -18.1594 Cl  0  0  0  0  0  0  0  0  0  0  0  0
   -8.6090    4.6911  -16.2906 C   0  0  0  0  0  0  0  0  0  0  0  0
   -7.3341    5.0988  -15.8842 C   0  0  0  0  0  0  0  0  0  0  0  0
   -7.1304    5.8935  -14.6235 C   0  0  0  0  0  0  0  0  0  0  0  0
   -6.3035    6.7126  -14.6580 O   0  0  0  0  0  0  0  0  0  0  0  0
   -8.1390    5.5434  -13.5197 N   0  0  0  0  0  0  0  0  0  0  0  0
   -8.4074    6.1841  -12.2673 C   0  0  0  0  0  0  0  0  0  0  0  0
   -8.3219    5.3528  -11.0249 C   0  0  0  0  0  0  0  0  0  0  0  0
   -8.5186    6.0162   -9.7995 C   0  0  0  0  0  0  0  0  0  0  0  0
   -8.3936    5.3433   -8.5867 C   0  0  0  0  0  0  0  0  0  0  0  0
   -8.0264    4.0054   -8.5785 C   0  0  0  0  0  0  0  0  0  0  0  0
   -7.8031    3.3438   -9.7791 C   0  0  0  0  0  0  0  0  0  0  0  0
   -7.1555    2.0896   -9.7324 N   0  0  0  0  0  0  0  0  0  0  0  0
   -5.4678    2.0552   -9.6767 S   0  0  0  0  0  0  0  0  0  0  0  0
   -5.0712    0.6610   -9.7451 O   0  0  0  0  0  0  0  0  0  0  0  0
   -4.9578    2.9172   -8.6288 O   0  0  0  0  0  0  0  0  0  0  0  0
   -4.9074    2.8491  -11.1774 C   0  0  0  0  0  0  0  0  0  0  0  0
   -4.7987    4.2480  -11.2020 C   0  0  0  0  0  0  0  0  0  0  0  0
   -4.2302    4.8861  -12.3029 C   0  0  0  0  0  0  0  0  0  0  0  0
   -3.7262    4.1236  -13.3523 C   0  0  0  0  0  0  0  0  0  0  0  0
   -2.9460    4.9097  -14.6640 Cl  0  0  0  0  0  0  0  0  0  0  0  0
   -3.8072    2.7306  -13.3203 C   0  0  0  0  0  0  0  0  0  0  0  0
   -4.3991    2.0888  -12.2290 C   0  0  0  0  0  0  0  0  0  0  0  0
   -8.0046    3.9897  -11.0034 C   0  0  0  0  0  0  0  0  0  0  0  0
   -6.2779    5.0644  -16.8094 C   0  0  0  0  0  0  0  0  0  0  0  0
   -3.5217    5.0980  -20.2153 O   0  0  0  0  0  0  0  0  0  0  0  0
   -2.1300    5.4303  -20.3310 C   0  0  0  0  0  0  0  0  0  0  0  0
   -1.9937    6.9286  -20.4681 C   0  0  0  0  0  0  0  0  0  0  0  0
   -2.0312    7.5306  -21.7327 C   0  0  0  0  0  0  0  0  0  0  0  0
   -1.9395    8.9180  -21.8601 C   0  0  0  0  0  0  0  0  0  0  0  0
   -1.8214    9.7182  -20.7247 C   0  0  0  0  0  0  0  0  0  0  0  0
   -1.7956    9.1322  -19.4609 C   0  0  0  0  0  0  0  0  0  0  0  0
   -1.8809    7.7448  -19.3328 C   0  0  0  0  0  0  0  0  0  0  0  0
  1  2  2  0
  2  3  1  0
  3  4  1  0
  4  5  2  0
  5  6  1  0
  6  7  1  0
  6  8  2  0
  8  9  1  0
  9 10  1  0
 10 11  2  0
 10 12  1  0
 12 13  1  0
 13 14  1  0
 14 15  2  0
 15 16  1  0
 16 17  2  0
 17 18  1  0
 18 19  1  0
 19 20  1  0
 20 21  2  0
 20 22  2  0
 20 23  1  0
 23 24  2  0
 24 25  1  0
 25 26  2  0
 26 27  1  0
 26 28  1  0
 28 29  2  0
 18 30  2  0
  9 31  2  0
  2 32  1  0
 32 33  1  0
 33 34  1  0
 34 35  2  0
 35 36  1  0
 36 37  2  0
 37 38  1  0
 38 39  2  0
 31  4  1  0
 39 34  1  0
 30 14  1  0
 29 23  1  0
M  END
>  <name>  (40) 
P103470

>  <alias>  (40) 
None

>  <smina_score_min>  (40) 
-7.54

>  <exports>  (40) 
['/opt/xchem-fragalysis-2/maxwin/BulkDock/OUTPUTS/openbind_xx01zvns2b_c2_elabs_1LOUTNY.sdf', '/opt/xchem-fragalysis-2/maxwin/BulkDock/OUTPUTS/openbind_xx01zvns2b_c2_elabs_1LSYIIV.sdf', '/opt/xchem-fragalysis-2/maxwin/openbind-hippo/xx01zvns2b/cycle_02/gnina/openbind_xx01zvns2b_c2_elabs_scored_6.2plus_products.sdf']

>  <tags>  (40) 
syndirella_placed,openbind_xx01zvns2b_c2_elabs,openbind_xx01zvns2b_c2_elabs_scored_6.2plus,syndirella_product,openbind_xx01zvns2b_c2_elabs_scored,openbind_xx01zvns2b_c2_elabs_scored_top80percent,BulkDock Fragalysis export,openbind_xx01zvns2b_c2_elabs_scored_top80percent_despaghettified

>  <subsites>  (40) 
1 - Z4590/B/203/1

>  <smiles>  (40) 
O=C(Nc1cc(Cl)cc(C(=O)NCc2cccc(NS(=O)(=O)c3ccc(Cl)cc3)c2)c1)OCc1ccccc1

>  <HIPPO Pose ID>  (40) 
103470

>  <energy_score>  (40) 
-25.603591

>  <inchikey>  (40) 
GJQUQYZAVFECPD-UHFFFAOYSA-N

>  <gnina_score_min>  (40) 
6.598

>  <gnina_score>  (40) 
6.737

>  <ref_mols>  (40) 
Z2992a

>  <HIPPO Compound ID>  (40) 
163202

>  <distance_score>  (40) 
1.071363

>  <rmsd(smina/fragmenstein)>  (40) 
0.821

>  <ref_pdb>  (40) 
Z2992a

>  <inspiration_score>  (40) 
None

$$$$
P103473
     RDKit          3D

 39 42  0  0  0  0  0  0  0  0999 V2000
   -3.4694    5.2120  -17.8914 O   0  0  0  0  0  0  0  0  0  0  0  0
   -4.0973    5.0639  -18.8586 C   0  0  0  0  0  0  0  0  0  0  0  0
   -5.5849    4.7582  -19.0384 N   0  0  0  0  0  0  0  0  0  0  0  0
   -6.6083    4.6648  -18.1012 C   0  0  0  0  0  0  0  0  0  0  0  0
   -7.8949    4.3668  -18.5447 C   0  0  0  0  0  0  0  0  0  0  0  0
   -8.9419    4.2868  -17.6292 C   0  0  0  0  0  0  0  0  0  0  0  0
  -10.5415    4.0596  -18.1989 Cl  0  0  0  0  0  0  0  0  0  0  0  0
   -8.7275    4.4994  -16.2715 C   0  0  0  0  0  0  0  0  0  0  0  0
   -7.4452    4.8273  -15.8368 C   0  0  0  0  0  0  0  0  0  0  0  0
   -7.2430    5.3764  -14.4751 C   0  0  0  0  0  0  0  0  0  0  0  0
   -6.6651    6.3896  -14.3997 O   0  0  0  0  0  0  0  0  0  0  0  0
   -7.9397    4.5348  -13.3785 N   0  0  0  0  0  0  0  0  0  0  0  0
   -7.9869    4.7096  -11.9991 C   0  0  0  0  0  0  0  0  0  0  0  0
   -7.5426    5.9077  -11.4489 C   0  0  0  0  0  0  0  0  0  0  0  0
   -7.6522    6.1340  -10.0829 C   0  0  0  0  0  0  0  0  0  0  0  0
   -8.2027    5.1615   -9.2432 C   0  0  0  0  0  0  0  0  0  0  0  0
   -8.3355    5.6520   -7.5908 Cl  0  0  0  0  0  0  0  0  0  0  0  0
   -8.6313    3.9301   -9.7709 C   0  0  0  0  0  0  0  0  0  0  0  0
   -9.3105    2.8230   -8.9965 C   0  0  0  0  0  0  0  0  0  0  0  0
  -10.0140    2.1197   -9.5978 O   0  0  0  0  0  0  0  0  0  0  0  0
   -8.9632    2.8410   -7.5064 N   0  0  0  0  0  0  0  0  0  0  0  0
   -9.4783    2.0583   -6.4187 C   0  0  0  0  0  0  0  0  0  0  0  0
   -9.9500    2.9345   -5.2860 C   0  0  0  0  0  0  0  0  0  0  0  0
   -9.0739    3.8321   -4.6533 C   0  0  0  0  0  0  0  0  0  0  0  0
   -9.5132    4.6531   -3.6106 C   0  0  0  0  0  0  0  0  0  0  0  0
  -10.8333    4.5792   -3.1718 C   0  0  0  0  0  0  0  0  0  0  0  0
  -11.7059    3.6721   -3.7674 C   0  0  0  0  0  0  0  0  0  0  0  0
  -11.2572    2.8551   -4.8048 C   0  0  0  0  0  0  0  0  0  0  0  0
  -12.1100    1.9483   -5.3015 F   0  0  0  0  0  0  0  0  0  0  0  0
   -8.5199    3.7246  -11.1678 C   0  0  0  0  0  0  0  0  0  0  0  0
   -6.3818    4.8953  -16.7460 C   0  0  0  0  0  0  0  0  0  0  0  0
   -3.5979    5.1425  -20.1215 O   0  0  0  0  0  0  0  0  0  0  0  0
   -2.2010    5.4565  -20.2219 C   0  0  0  0  0  0  0  0  0  0  0  0
   -2.0450    6.9473  -20.4006 C   0  0  0  0  0  0  0  0  0  0  0  0
   -1.9440    7.7942  -19.2872 C   0  0  0  0  0  0  0  0  0  0  0  0
   -1.8357    9.1758  -19.4538 C   0  0  0  0  0  0  0  0  0  0  0  0
   -1.8282    9.7250  -20.7345 C   0  0  0  0  0  0  0  0  0  0  0  0
   -1.9352    8.8939  -21.8485 C   0  0  0  0  0  0  0  0  0  0  0  0
   -2.0486    7.5123  -21.6828 C   0  0  0  0  0  0  0  0  0  0  0  0
  1  2  2  0
  2  3  1  0
  3  4  1  0
  4  5  2  0
  5  6  1  0
  6  7  1  0
  6  8  2  0
  8  9  1  0
  9 10  1  0
 10 11  2  0
 10 12  1  0
 12 13  1  0
 13 14  2  0
 14 15  1  0
 15 16  2  0
 16 17  1  0
 16 18  1  0
 18 19  1  0
 19 20  2  0
 19 21  1  0
 21 22  1  0
 22 23  1  0
 23 24  2  0
 24 25  1  0
 25 26  2  0
 26 27  1  0
 27 28  2  0
 28 29  1  0
 18 30  2  0
  9 31  2  0
  2 32  1  0
 32 33  1  0
 33 34  1  0
 34 35  2  0
 35 36  1  0
 36 37  2  0
 37 38  1  0
 38 39  2  0
 31  4  1  0
 39 34  1  0
 30 13  1  0
 28 23  1  0
M  END
>  <name>  (41) 
P103473

>  <alias>  (41) 
None

>  <smina_score_min>  (41) 
-8.384

>  <exports>  (41) 
['/opt/xchem-fragalysis-2/maxwin/BulkDock/OUTPUTS/openbind_xx01zvns2b_c2_elabs_1LOUTNY.sdf', '/opt/xchem-fragalysis-2/maxwin/BulkDock/OUTPUTS/openbind_xx01zvns2b_c2_elabs_1LSYIIV.sdf', '/opt/xchem-fragalysis-2/maxwin/openbind-hippo/xx01zvns2b/cycle_02/gnina/openbind_xx01zvns2b_c2_elabs_scored_6.2plus_products.sdf']

>  <tags>  (41) 
syndirella_placed,openbind_xx01zvns2b_c2_elabs,openbind_xx01zvns2b_c2_elabs_scored_6.2plus,syndirella_product,openbind_xx01zvns2b_c2_elabs_scored,openbind_xx01zvns2b_c2_elabs_scored_top80percent,BulkDock Fragalysis export,openbind_xx01zvns2b_c2_elabs_scored_top80percent_despaghettified

>  <subsites>  (41) 
1 - Z4590/B/203/1

>  <smiles>  (41) 
O=C(Nc1cc(Cl)cc(C(=O)Nc2ccc(Cl)c(C(=O)NCc3ccccc3F)c2)c1)OCc1ccccc1

>  <HIPPO Pose ID>  (41) 
103473

>  <energy_score>  (41) 
-27.319737

>  <inchikey>  (41) 
QNXKEPCCVVEMHM-UHFFFAOYSA-N

>  <gnina_score_min>  (41) 
6.507

>  <gnina_score>  (41) 
6.448

>  <ref_mols>  (41) 
Z2992a

>  <HIPPO Compound ID>  (41) 
163206

>  <distance_score>  (41) 
0.453785

>  <rmsd(smina/fragmenstein)>  (41) 
1.217

>  <ref_pdb>  (41) 
Z2992a

>  <inspiration_score>  (41) 
None

$$$$
P103474
     RDKit          3D

 39 42  0  0  0  0  0  0  0  0999 V2000
   -2.6675    5.5694   -8.3768 C   0  0  0  0  0  0  0  0  0  0  0  0
   -2.1429    4.1341   -8.2517 C   0  0  0  0  0  0  0  0  0  0  0  0
   -0.9098    3.8909   -9.1288 C   0  0  0  0  0  0  0  0  0  0  0  0
   -1.7549    3.8855   -6.7859 C   0  0  0  0  0  0  0  0  0  0  0  0
   -3.1854    3.1652   -8.5244 O   0  0  0  0  0  0  0  0  0  0  0  0
   -3.7911    3.1065   -9.7469 C   0  0  0  0  0  0  0  0  0  0  0  0
   -3.4829    3.8206  -10.6587 O   0  0  0  0  0  0  0  0  0  0  0  0
   -4.7692    2.0946   -9.6641 N   0  0  0  0  0  0  0  0  0  0  0  0
   -5.6623    1.5062  -10.7156 C   0  0  0  0  0  0  0  0  0  0  0  0
   -6.0873    2.4213  -11.8802 C   0  0  0  0  0  0  0  0  0  0  0  0
   -6.7536    3.6548  -11.3574 C   0  0  0  0  0  0  0  0  0  0  0  0
   -7.2328    4.6889  -12.1588 C   0  0  0  0  0  0  0  0  0  0  0  0
   -7.1440    4.6025  -13.5414 N   0  0  0  0  0  0  0  0  0  0  0  0
   -7.2328    5.6045  -14.5463 C   0  0  0  0  0  0  0  0  0  0  0  0
   -7.3284    6.7930  -14.4600 O   0  0  0  0  0  0  0  0  0  0  0  0
   -7.3130    5.0436  -15.9033 C   0  0  0  0  0  0  0  0  0  0  0  0
   -8.5638    4.6156  -16.3420 C   0  0  0  0  0  0  0  0  0  0  0  0
   -8.7304    4.3246  -17.6863 C   0  0  0  0  0  0  0  0  0  0  0  0
  -10.2981    3.9640  -18.2690 Cl  0  0  0  0  0  0  0  0  0  0  0  0
   -7.6607    4.4163  -18.5736 C   0  0  0  0  0  0  0  0  0  0  0  0
   -6.3990    4.8037  -18.1141 C   0  0  0  0  0  0  0  0  0  0  0  0
   -5.3644    4.8775  -19.0419 N   0  0  0  0  0  0  0  0  0  0  0  0
   -3.9853    5.1437  -18.8768 C   0  0  0  0  0  0  0  0  0  0  0  0
   -3.3320    5.2977  -17.8899 O   0  0  0  0  0  0  0  0  0  0  0  0
   -3.4656    5.1589  -20.1344 O   0  0  0  0  0  0  0  0  0  0  0  0
   -2.0604    5.4304  -20.2390 C   0  0  0  0  0  0  0  0  0  0  0  0
   -1.8666    6.9094  -20.4658 C   0  0  0  0  0  0  0  0  0  0  0  0
   -1.6517    7.7733  -19.3831 C   0  0  0  0  0  0  0  0  0  0  0  0
   -1.5109    9.1465  -19.5892 C   0  0  0  0  0  0  0  0  0  0  0  0
   -1.5876    9.6699  -20.8786 C   0  0  0  0  0  0  0  0  0  0  0  0
   -1.8098    8.8214  -21.9622 C   0  0  0  0  0  0  0  0  0  0  0  0
   -1.9537    7.4481  -21.7569 C   0  0  0  0  0  0  0  0  0  0  0  0
   -6.2217    5.1295  -16.7699 C   0  0  0  0  0  0  0  0  0  0  0  0
   -7.7864    5.8281  -11.5654 C   0  0  0  0  0  0  0  0  0  0  0  0
   -7.8913    5.9250  -10.1799 C   0  0  0  0  0  0  0  0  0  0  0  0
   -7.3885    4.9060   -9.3772 C   0  0  0  0  0  0  0  0  0  0  0  0
   -7.5421    5.0910   -7.6680 Cl  0  0  0  0  0  0  0  0  0  0  0  0
   -6.7704    3.7922   -9.9655 C   0  0  0  0  0  0  0  0  0  0  0  0
   -6.1043    2.6870   -9.1750 C   0  0  0  0  0  0  0  0  0  0  0  0
  1  2  1  0
  2  3  1  0
  2  4  1  0
  2  5  1  0
  5  6  1  0
  6  7  2  0
  6  8  1  0
  8  9  1  0
  9 10  1  0
 10 11  1  0
 11 12  2  0
 12 13  1  0
 13 14  1  0
 14 15  2  0
 14 16  1  0
 16 17  2  0
 17 18  1  0
 18 19  1  0
 18 20  2  0
 20 21  1  0
 21 22  1  0
 22 23  1  0
 23 24  2  0
 23 25  1  0
 25 26  1  0
 26 27  1  0
 27 28  2  0
 28 29  1  0
 29 30  2  0
 30 31  1  0
 31 32  2  0
 21 33  2  0
 12 34  1  0
 34 35  2  0
 35 36  1  0
 36 37  1  0
 36 38  2  0
 38 39  1  0
 39  8  1  0
 38 11  1  0
 33 16  1  0
 32 27  1  0
M  END
>  <name>  (42) 
P103474

>  <alias>  (42) 
None

>  <smina_score_min>  (42) 
-7.496

>  <exports>  (42) 
['/opt/xchem-fragalysis-2/maxwin/BulkDock/OUTPUTS/openbind_xx01zvns2b_c2_elabs_1LOUTNY.sdf', '/opt/xchem-fragalysis-2/maxwin/BulkDock/OUTPUTS/openbind_xx01zvns2b_c2_elabs_1LSYIIV.sdf', '/opt/xchem-fragalysis-2/maxwin/openbind-hippo/xx01zvns2b/cycle_02/gnina/openbind_xx01zvns2b_c2_elabs_scored_6.2plus_products.sdf']

>  <tags>  (42) 
syndirella_placed,openbind_xx01zvns2b_c2_elabs,openbind_xx01zvns2b_c2_elabs_scored_6.2plus,syndirella_product,openbind_xx01zvns2b_c2_elabs_scored,openbind_xx01zvns2b_c2_elabs_scored_top80percent,BulkDock Fragalysis export,openbind_xx01zvns2b_c2_elabs_scored_top80percent_despaghettified

>  <subsites>  (42) 
1 - Z4590/B/203/1

>  <smiles>  (42) 
CC(C)(C)OC(=O)N1CCc2c(NC(=O)c3cc(Cl)cc(NC(=O)OCc4ccccc4)c3)ccc(Cl)c2C1

>  <HIPPO Pose ID>  (42) 
103474

>  <energy_score>  (42) 
-2.394264

>  <inchikey>  (42) 
CMWUTYZJUVZFMU-UHFFFAOYSA-N

>  <gnina_score_min>  (42) 
6.715

>  <gnina_score>  (42) 
6.691

>  <ref_mols>  (42) 
Z2992a

>  <HIPPO Compound ID>  (42) 
163212

>  <distance_score>  (42) 
1.228803

>  <rmsd(smina/fragmenstein)>  (42) 
1.383

>  <ref_pdb>  (42) 
Z2992a

>  <inspiration_score>  (42) 
None

$$$$
P103475
     RDKit          3D

 39 43  0  0  0  0  0  0  0  0999 V2000
   -3.4913    5.0700  -17.9484 O   0  0  0  0  0  0  0  0  0  0  0  0
   -4.1458    5.0337  -18.9087 C   0  0  0  0  0  0  0  0  0  0  0  0
   -5.6497    4.8115  -19.0763 N   0  0  0  0  0  0  0  0  0  0  0  0
   -6.6555    4.6843  -18.1257 C   0  0  0  0  0  0  0  0  0  0  0  0
   -7.9473    4.3890  -18.5527 C   0  0  0  0  0  0  0  0  0  0  0  0
   -8.9793    4.2920  -17.6218 C   0  0  0  0  0  0  0  0  0  0  0  0
  -10.5855    4.0722  -18.1760 Cl  0  0  0  0  0  0  0  0  0  0  0  0
   -8.7433    4.4762  -16.2626 C   0  0  0  0  0  0  0  0  0  0  0  0
   -7.4528    4.7873  -15.8417 C   0  0  0  0  0  0  0  0  0  0  0  0
   -7.1897    5.2377  -14.4535 C   0  0  0  0  0  0  0  0  0  0  0  0
   -6.5910    6.2343  -14.3307 O   0  0  0  0  0  0  0  0  0  0  0  0
   -7.8333    4.3159  -13.3887 N   0  0  0  0  0  0  0  0  0  0  0  0
   -7.7943    4.3759  -11.9992 C   0  0  0  0  0  0  0  0  0  0  0  0
   -7.0693    5.4070  -11.3634 C   0  0  0  0  0  0  0  0  0  0  0  0
   -7.0070    5.4961   -9.9719 C   0  0  0  0  0  0  0  0  0  0  0  0
   -7.6792    4.5326   -9.2521 C   0  0  0  0  0  0  0  0  0  0  0  0
   -8.4113    3.5440   -9.8648 C   0  0  0  0  0  0  0  0  0  0  0  0
   -8.4892    3.4308  -11.2421 C   0  0  0  0  0  0  0  0  0  0  0  0
   -9.1610    2.8681   -8.8162 C   0  0  0  0  0  0  0  0  0  0  0  0
  -10.1264    2.1798   -9.0796 O   0  0  0  0  0  0  0  0  0  0  0  0
   -8.7286    3.3584   -7.5984 N   0  0  0  0  0  0  0  0  0  0  0  0
   -9.6529    3.3375   -6.4692 C   0  0  2  0  0  0  0  0  0  0  0  0
   -9.1734    3.9639   -5.1437 C   0  0  0  0  0  0  0  0  0  0  0  0
  -10.2848    3.9930   -4.0746 C   0  0  0  0  0  0  0  0  0  0  0  0
  -11.5655    3.2956   -4.5315 C   0  0  0  0  0  0  0  0  0  0  0  0
  -11.2423    2.0408   -5.1497 N   0  0  0  0  0  0  0  0  0  0  0  0
  -10.2559    1.9684   -6.1119 C   0  0  0  0  0  0  0  0  0  0  0  0
   -9.9397    0.8896   -6.5862 O   0  0  0  0  0  0  0  0  0  0  0  0
   -7.8939    4.4265   -7.8174 C   0  0  0  0  0  0  0  0  0  0  0  0
   -7.4678    5.2788   -7.0562 O   0  0  0  0  0  0  0  0  0  0  0  0
   -6.4071    4.8835  -16.7700 C   0  0  0  0  0  0  0  0  0  0  0  0
   -3.6649    5.1659  -20.1742 O   0  0  0  0  0  0  0  0  0  0  0  0
   -2.2600    5.4383  -20.2840 C   0  0  0  0  0  0  0  0  0  0  0  0
   -2.0676    6.9293  -20.4219 C   0  0  0  0  0  0  0  0  0  0  0  0
   -1.9676    7.7453  -19.2854 C   0  0  0  0  0  0  0  0  0  0  0  0
   -1.8306    9.1284  -19.4147 C   0  0  0  0  0  0  0  0  0  0  0  0
   -1.7930    9.7100  -20.6806 C   0  0  0  0  0  0  0  0  0  0  0  0
   -1.8979    8.9099  -21.8172 C   0  0  0  0  0  0  0  0  0  0  0  0
   -2.0397    7.5269  -21.6890 C   0  0  0  0  0  0  0  0  0  0  0  0
  1  2  2  0
  2  3  1  0
  3  4  1  0
  4  5  2  0
  5  6  1  0
  6  7  1  0
  6  8  2  0
  8  9  1  0
  9 10  1  0
 10 11  2  0
 10 12  1  0
 12 13  1  0
 13 14  2  0
 14 15  1  0
 15 16  2  0
 16 17  1  0
 17 18  2  0
 17 19  1  0
 19 20  2  0
 19 21  1  0
 22 21  1  6
 22 23  1  0
 23 24  1  0
 24 25  1  0
 25 26  1  0
 26 27  1  0
 27 28  2  0
 21 29  1  0
 29 30  2  0
  9 31  2  0
  2 32  1  0
 32 33  1  0
 33 34  1  0
 34 35  2  0
 35 36  1  0
 36 37  2  0
 37 38  1  0
 38 39  2  0
 31  4  1  0
 39 34  1  0
 18 13  1  0
 27 22  1  0
 29 16  1  0
M  END
>  <name>  (43) 
P103475

>  <alias>  (43) 
None

>  <smina_score_min>  (43) 
-9.62

>  <exports>  (43) 
['/opt/xchem-fragalysis-2/maxwin/BulkDock/OUTPUTS/openbind_xx01zvns2b_c2_elabs_1LOUTNY.sdf', '/opt/xchem-fragalysis-2/maxwin/BulkDock/OUTPUTS/openbind_xx01zvns2b_c2_elabs_1LSYIIV.sdf', '/opt/xchem-fragalysis-2/maxwin/openbind-hippo/xx01zvns2b/cycle_02/gnina/openbind_xx01zvns2b_c2_elabs_scored_6.2plus_products.sdf']

>  <tags>  (43) 
syndirella_placed,openbind_xx01zvns2b_c2_elabs,openbind_xx01zvns2b_c2_elabs_scored_6.2plus,syndirella_product,openbind_xx01zvns2b_c2_elabs_scored,openbind_xx01zvns2b_c2_elabs_scored_top80percent,BulkDock Fragalysis export,openbind_xx01zvns2b_c2_elabs_scored_top80percent_despaghettified

>  <subsites>  (43) 
1 - Z4590/B/203/1

>  <smiles>  (43) 
O=C(Nc1cc(Cl)cc(C(=O)Nc2ccc3c(c2)C(=O)N([C@@H]2CCCNC2=O)C3=O)c1)OCc1ccccc1

>  <HIPPO Pose ID>  (43) 
103475

>  <energy_score>  (43) 
-23.35978

>  <inchikey>  (43) 
YQMYIKSXWQVMIM-HSZRJFAPSA-N

>  <gnina_score_min>  (43) 
6.398

>  <gnina_score>  (43) 
6.342

>  <ref_mols>  (43) 
Z2992a

>  <HIPPO Compound ID>  (43) 
163214

>  <distance_score>  (43) 
0.589913

>  <rmsd(smina/fragmenstein)>  (43) 
1.096

>  <ref_pdb>  (43) 
Z2992a

>  <inspiration_score>  (43) 
None

$$$$
P103476
     RDKit          3D

 39 43  0  0  0  0  0  0  0  0999 V2000
  -10.0586    4.3486   -2.5715 O   0  0  0  0  0  0  0  0  0  0  0  0
   -9.6439    3.7474   -3.5594 C   0  0  0  0  0  0  0  0  0  0  0  0
  -10.5396    3.0367   -4.5367 C   0  0  0  0  0  0  0  0  0  0  0  0
  -10.1674    3.4361   -5.9405 C   0  0  0  0  0  0  0  0  0  0  0  0
   -8.7074    3.0757   -6.2329 C   0  0  1  0  0  0  0  0  0  0  0  0
   -8.3770    3.5450   -7.5777 N   0  0  0  0  0  0  0  0  0  0  0  0
   -7.8469    4.8694   -7.8249 C   0  0  0  0  0  0  0  0  0  0  0  0
   -7.9210    4.9773   -9.3036 C   0  0  0  0  0  0  0  0  0  0  0  0
   -7.4801    6.0047  -10.1067 C   0  0  0  0  0  0  0  0  0  0  0  0
   -7.5410    5.8112  -11.4834 C   0  0  0  0  0  0  0  0  0  0  0  0
   -8.0423    4.6147  -12.0388 C   0  0  0  0  0  0  0  0  0  0  0  0
   -7.9555    4.4303  -13.4151 N   0  0  0  0  0  0  0  0  0  0  0  0
   -7.2938    5.3063  -14.5073 C   0  0  0  0  0  0  0  0  0  0  0  0
   -6.6525    6.2792  -14.4127 O   0  0  0  0  0  0  0  0  0  0  0  0
   -7.5310    4.8038  -15.8800 C   0  0  0  0  0  0  0  0  0  0  0  0
   -8.8118    4.4615  -16.2991 C   0  0  0  0  0  0  0  0  0  0  0  0
   -9.0424    4.2727  -17.6577 C   0  0  0  0  0  0  0  0  0  0  0  0
  -10.6496    4.0574  -18.2063 Cl  0  0  0  0  0  0  0  0  0  0  0  0
   -8.0117    4.3830  -18.5892 C   0  0  0  0  0  0  0  0  0  0  0  0
   -6.7273    4.7068  -18.1621 C   0  0  0  0  0  0  0  0  0  0  0  0
   -5.7246    4.8936  -19.1070 N   0  0  0  0  0  0  0  0  0  0  0  0
   -4.2130    5.0548  -18.9341 C   0  0  0  0  0  0  0  0  0  0  0  0
   -3.5685    5.1344  -17.9696 O   0  0  0  0  0  0  0  0  0  0  0  0
   -3.7147    5.1210  -20.1987 O   0  0  0  0  0  0  0  0  0  0  0  0
   -2.3071    5.3866  -20.2994 C   0  0  0  0  0  0  0  0  0  0  0  0
   -2.0993    6.8761  -20.4440 C   0  0  0  0  0  0  0  0  0  0  0  0
   -1.9727    7.6954  -19.3124 C   0  0  0  0  0  0  0  0  0  0  0  0
   -1.8232    9.0768  -19.4482 C   0  0  0  0  0  0  0  0  0  0  0  0
   -1.7985    9.6538  -20.7163 C   0  0  0  0  0  0  0  0  0  0  0  0
   -1.9286    8.8507  -21.8483 C   0  0  0  0  0  0  0  0  0  0  0  0
   -2.0837    7.4697  -21.7132 C   0  0  0  0  0  0  0  0  0  0  0  0
   -6.4854    4.9127  -16.8068 C   0  0  0  0  0  0  0  0  0  0  0  0
   -8.5588    3.6116  -11.2175 C   0  0  0  0  0  0  0  0  0  0  0  0
   -8.4747    3.8199   -9.8519 C   0  0  0  0  0  0  0  0  0  0  0  0
   -8.8689    2.9495   -8.7335 C   0  0  0  0  0  0  0  0  0  0  0  0
   -9.5569    1.9540   -8.8260 O   0  0  0  0  0  0  0  0  0  0  0  0
   -7.7802    3.6385   -5.1131 C   0  0  0  0  0  0  0  0  0  0  0  0
   -6.6243    4.0453   -5.2663 O   0  0  0  0  0  0  0  0  0  0  0  0
   -8.3100    3.7124   -3.8481 N   0  0  0  0  0  0  0  0  0  0  0  0
  1  2  2  0
  2  3  1  0
  3  4  1  0
  4  5  1  0
  5  6  1  6
  6  7  1  0
  7  8  1  0
  8  9  2  0
  9 10  1  0
 10 11  2  0
 11 12  1  0
 12 13  1  0
 13 14  2  0
 13 15  1  0
 15 16  2  0
 16 17  1  0
 17 18  1  0
 17 19  2  0
 19 20  1  0
 20 21  1  0
 21 22  1  0
 22 23  2  0
 22 24  1  0
 24 25  1  0
 25 26  1  0
 26 27  2  0
 27 28  1  0
 28 29  2  0
 29 30  1  0
 30 31  2  0
 20 32  2  0
 11 33  1  0
 33 34  2  0
 34 35  1  0
 35 36  2  0
  5 37  1  0
 37 38  2  0
 37 39  1  0
 39  2  1  0
 35  6  1  0
 34  8  1  0
 32 15  1  0
 31 26  1  0
M  END
>  <name>  (44) 
P103476

>  <alias>  (44) 
None

>  <smina_score_min>  (44) 
-10.248

>  <exports>  (44) 
['/opt/xchem-fragalysis-2/maxwin/BulkDock/OUTPUTS/openbind_xx01zvns2b_c2_elabs_1LOUTNY.sdf', '/opt/xchem-fragalysis-2/maxwin/BulkDock/OUTPUTS/openbind_xx01zvns2b_c2_elabs_1LSYIIV.sdf', '/opt/xchem-fragalysis-2/maxwin/openbind-hippo/xx01zvns2b/cycle_02/gnina/openbind_xx01zvns2b_c2_elabs_scored_6.2plus_products.sdf']

>  <tags>  (44) 
syndirella_placed,openbind_xx01zvns2b_c2_elabs,openbind_xx01zvns2b_c2_elabs_scored_6.2plus,syndirella_product,openbind_xx01zvns2b_c2_elabs_scored,openbind_xx01zvns2b_c2_elabs_scored_top80percent,BulkDock Fragalysis export,openbind_xx01zvns2b_c2_elabs_scored_top80percent_despaghettified

>  <subsites>  (44) 
1 - Z4590/B/203/1

>  <smiles>  (44) 
O=C1CC[C@@H](N2Cc3ccc(NC(=O)c4cc(Cl)cc(NC(=O)OCc5ccccc5)c4)cc3C2=O)C(=O)N1

>  <HIPPO Pose ID>  (44) 
103476

>  <energy_score>  (44) 
-36.571035

>  <inchikey>  (44) 
SGRUIJOWQZLCGE-HSZRJFAPSA-N

>  <gnina_score_min>  (44) 
6.267

>  <gnina_score>  (44) 
6.228

>  <ref_mols>  (44) 
Z2992a

>  <HIPPO Compound ID>  (44) 
163215

>  <distance_score>  (44) 
0.525315

>  <rmsd(smina/fragmenstein)>  (44) 
1.769

>  <ref_pdb>  (44) 
Z2992a

>  <inspiration_score>  (44) 
None

$$$$
P103477
     RDKit          3D

 39 42  0  0  0  0  0  0  0  0999 V2000
    1.8692   -1.2091  -11.0179 C   0  0  0  0  0  0  0  0  0  0  0  0
    1.2183   -0.2822  -10.0359 C   0  0  0  0  0  0  0  0  0  0  0  0
    1.9527    0.2189   -8.9552 C   0  0  0  0  0  0  0  0  0  0  0  0
    1.3661    1.1141   -8.0612 C   0  0  0  0  0  0  0  0  0  0  0  0
    0.0459    1.5283   -8.2474 C   0  0  0  0  0  0  0  0  0  0  0  0
   -0.6954    1.0443   -9.3242 C   0  0  0  0  0  0  0  0  0  0  0  0
   -2.0021    1.4699   -9.5633 N   0  0  0  0  0  0  0  0  0  0  0  0
   -2.8136    2.5555   -8.9147 C   0  0  0  0  0  0  0  0  0  0  0  0
   -2.5587    3.2484   -7.9985 O   0  0  0  0  0  0  0  0  0  0  0  0
   -4.0245    2.5333   -9.8062 N   0  0  0  0  0  0  0  0  0  0  0  0
   -5.1338    3.3790   -9.8565 C   0  0  0  0  0  0  0  0  0  0  0  0
   -5.2561    4.4713   -8.9972 C   0  0  0  0  0  0  0  0  0  0  0  0
   -6.3522    5.3286   -9.0918 C   0  0  0  0  0  0  0  0  0  0  0  0
   -7.3359    5.0944  -10.0466 C   0  0  0  0  0  0  0  0  0  0  0  0
   -7.2407    3.9919  -10.9081 C   0  0  0  0  0  0  0  0  0  0  0  0
   -8.3533    3.7134  -11.8757 C   0  0  0  0  0  0  0  0  0  0  0  0
   -7.9948    3.8529  -13.2633 N   0  0  0  0  0  0  0  0  0  0  0  0
   -7.4994    4.9723  -13.9938 C   0  0  0  0  0  0  0  0  0  0  0  0
   -7.1775    6.0638  -13.6288 O   0  0  0  0  0  0  0  0  0  0  0  0
   -7.4865    4.7327  -15.4599 C   0  0  0  0  0  0  0  0  0  0  0  0
   -8.6946    4.4181  -16.0862 C   0  0  0  0  0  0  0  0  0  0  0  0
   -8.7376    4.3183  -17.4690 C   0  0  0  0  0  0  0  0  0  0  0  0
  -10.2354    4.0266  -18.2489 Cl  0  0  0  0  0  0  0  0  0  0  0  0
   -7.5888    4.5092  -18.2293 C   0  0  0  0  0  0  0  0  0  0  0  0
   -6.3744    4.8033  -17.6020 C   0  0  0  0  0  0  0  0  0  0  0  0
   -5.2605    4.9476  -18.4254 N   0  0  0  0  0  0  0  0  0  0  0  0
   -3.9059    5.2069  -18.1185 C   0  0  0  0  0  0  0  0  0  0  0  0
   -3.3727    5.4480  -17.0785 O   0  0  0  0  0  0  0  0  0  0  0  0
   -3.2564    5.1600  -19.3118 O   0  0  0  0  0  0  0  0  0  0  0  0
   -1.8632    5.4954  -19.3054 C   0  0  0  0  0  0  0  0  0  0  0  0
   -1.7199    6.9120  -19.8013 C   0  0  0  0  0  0  0  0  0  0  0  0
   -1.5868    7.1772  -21.1712 C   0  0  0  0  0  0  0  0  0  0  0  0
   -1.4927    8.4919  -21.6311 C   0  0  0  0  0  0  0  0  0  0  0  0
   -1.5385    9.5527  -20.7276 C   0  0  0  0  0  0  0  0  0  0  0  0
   -1.6816    9.3004  -19.3642 C   0  0  0  0  0  0  0  0  0  0  0  0
   -1.7755    7.9866  -18.9028 C   0  0  0  0  0  0  0  0  0  0  0  0
   -6.3230    4.9347  -16.2116 C   0  0  0  0  0  0  0  0  0  0  0  0
   -6.1302    3.1367  -10.8074 C   0  0  0  0  0  0  0  0  0  0  0  0
   -0.1102    0.1340  -10.2102 C   0  0  0  0  0  0  0  0  0  0  0  0
  1  2  1  0
  2  3  2  0
  3  4  1  0
  4  5  2  0
  5  6  1  0
  6  7  1  0
  7  8  1  0
  8  9  2  0
  8 10  1  0
 10 11  1  0
 11 12  2  0
 12 13  1  0
 13 14  2  0
 14 15  1  0
 15 16  1  0
 16 17  1  0
 17 18  1  0
 18 19  2  0
 18 20  1  0
 20 21  2  0
 21 22  1  0
 22 23  1  0
 22 24  2  0
 24 25  1  0
 25 26  1  0
 26 27  1  0
 27 28  2  0
 27 29  1  0
 29 30  1  0
 30 31  1  0
 31 32  2  0
 32 33  1  0
 33 34  2  0
 34 35  1  0
 35 36  2  0
 25 37  2  0
 15 38  2  0
  6 39  2  0
 39  2  1  0
 38 11  1  0
 37 20  1  0
 36 31  1  0
M  END
>  <name>  (45) 
P103477

>  <alias>  (45) 
None

>  <smina_score_min>  (45) 
-8.101

>  <exports>  (45) 
['/opt/xchem-fragalysis-2/maxwin/BulkDock/OUTPUTS/openbind_xx01zvns2b_c2_elabs_1LOUTNY.sdf', '/opt/xchem-fragalysis-2/maxwin/BulkDock/OUTPUTS/openbind_xx01zvns2b_c2_elabs_1LSYIIV.sdf', '/opt/xchem-fragalysis-2/maxwin/openbind-hippo/xx01zvns2b/cycle_02/gnina/openbind_xx01zvns2b_c2_elabs_scored_6.2plus_products.sdf']

>  <tags>  (45) 
syndirella_placed,openbind_xx01zvns2b_c2_elabs,openbind_xx01zvns2b_c2_elabs_scored_6.2plus,syndirella_product,openbind_xx01zvns2b_c2_elabs_scored,openbind_xx01zvns2b_c2_elabs_scored_top80percent,BulkDock Fragalysis export,openbind_xx01zvns2b_c2_elabs_scored_top80percent_despaghettified

>  <subsites>  (45) 
1 - Z4590/B/203/1

>  <smiles>  (45) 
Cc1cccc(NC(=O)Nc2cccc(CNC(=O)c3cc(Cl)cc(NC(=O)OCc4ccccc4)c3)c2)c1

>  <HIPPO Pose ID>  (45) 
103477

>  <energy_score>  (45) 
-69.793497

>  <inchikey>  (45) 
HNDURIVTTTXERJ-UHFFFAOYSA-N

>  <gnina_score_min>  (45) 
6.349

>  <gnina_score>  (45) 
6.384

>  <ref_mols>  (45) 
Z2992a

>  <HIPPO Compound ID>  (45) 
163218

>  <distance_score>  (45) 
1.855786

>  <rmsd(smina/fragmenstein)>  (45) 
2.069

>  <ref_pdb>  (45) 
Z2992a

>  <inspiration_score>  (45) 
None

$$$$
P104406
     RDKit          3D

 24 27  0  0  0  0  0  0  0  0999 V2000
   -3.4525    5.6997  -17.8694 C   0  0  0  0  0  0  0  0  0  0  0  0
   -4.8581    5.3088  -18.1423 C   0  0  0  0  0  0  0  0  0  0  0  0
   -5.4306    5.0839  -19.3760 C   0  0  0  0  0  0  0  0  0  0  0  0
   -6.7368    4.7177  -19.1875 N   0  0  0  0  0  0  0  0  0  0  0  0
   -7.0259    4.6680  -17.8440 C   0  0  0  0  0  0  0  0  0  0  0  0
   -8.2027    4.3114  -17.1757 C   0  0  0  0  0  0  0  0  0  0  0  0
   -9.5742    3.7511  -18.0405 Cl  0  0  0  0  0  0  0  0  0  0  0  0
   -8.2634    4.4935  -15.7942 C   0  0  0  0  0  0  0  0  0  0  0  0
   -7.1545    5.0045  -15.1184 C   0  0  0  0  0  0  0  0  0  0  0  0
   -7.2498    5.4226  -13.7022 C   0  0  0  0  0  0  0  0  0  0  0  0
   -6.9001    6.4995  -13.4211 O   0  0  0  0  0  0  0  0  0  0  0  0
   -7.8416    4.3038  -12.8246 N   0  0  0  0  0  0  0  0  0  0  0  0
   -8.0335    4.2410  -11.4499 C   0  0  0  0  0  0  0  0  0  0  0  0
   -7.8254    5.3727  -10.6399 C   0  0  0  0  0  0  0  0  0  0  0  0
   -8.0398    5.3200   -9.2611 C   0  0  0  0  0  0  0  0  0  0  0  0
   -8.4712    4.1254   -8.7256 C   0  0  0  0  0  0  0  0  0  0  0  0
   -8.6657    2.9993   -9.5293 C   0  0  0  0  0  0  0  0  0  0  0  0
   -8.4495    3.0339  -10.8917 C   0  0  0  0  0  0  0  0  0  0  0  0
   -9.1262    1.8680   -8.6721 C   0  0  0  0  0  0  0  0  0  0  0  0
   -9.6356    2.5538   -7.4653 N   0  0  0  0  0  0  0  0  0  0  0  0
   -9.5836    1.6991   -6.3071 C   0  0  0  0  0  0  0  0  0  0  0  0
   -8.8229    3.7757   -7.3156 C   0  0  0  0  0  0  0  0  0  0  0  0
   -5.9507    5.2784  -15.7807 C   0  0  0  0  0  0  0  0  0  0  0  0
   -5.8859    5.1076  -17.1725 C   0  0  0  0  0  0  0  0  0  0  0  0
  1  2  1  0
  2  3  2  0
  3  4  1  0
  4  5  1  0
  5  6  2  0
  6  7  1  0
  6  8  1  0
  8  9  2  0
  9 10  1  0
 10 11  2  0
 10 12  1  0
 12 13  1  0
 13 14  2  0
 14 15  1  0
 15 16  2  0
 16 17  1  0
 17 18  2  0
 17 19  1  0
 19 20  1  0
 20 21  1  0
 20 22  1  0
  9 23  1  0
 23 24  2  0
 24  2  1  0
 24  5  1  0
 18 13  1  0
 22 16  1  0
M  END
>  <name>  (46) 
P104406

>  <alias>  (46) 
None

>  <smina_score_min>  (46) 
-9.5

>  <exports>  (46) 
['/opt/xchem-fragalysis-2/maxwin/BulkDock/OUTPUTS/openbind_xx01zvns2b_c2_elabs_1LOUTNY.sdf', '/opt/xchem-fragalysis-2/maxwin/BulkDock/OUTPUTS/openbind_xx01zvns2b_c2_elabs_1LSYIIV.sdf', '/opt/xchem-fragalysis-2/maxwin/openbind-hippo/xx01zvns2b/cycle_02/gnina/openbind_xx01zvns2b_c2_elabs_scored_6.2plus_products.sdf']

>  <tags>  (46) 
syndirella_placed,openbind_xx01zvns2b_c2_elabs,openbind_xx01zvns2b_c2_elabs_scored_6.2plus,syndirella_product,openbind_xx01zvns2b_c2_elabs_scored,openbind_xx01zvns2b_c1_elabs_filtered,openbind_xx01zvns2b_c2_elabs_scored_top80percent,BulkDock Fragalysis export,openbind_xx01zvns2b_c2_elabs_scored_top80percent_despaghettified

>  <subsites>  (46) 
1 - Z4590/B/203/1

>  <smiles>  (46) 
Cc1c[nH]c2c(Cl)cc(C(=O)Nc3ccc4c(c3)CN(C)C4)cc12

>  <HIPPO Pose ID>  (46) 
104406

>  <energy_score>  (46) 
-25.12481

>  <inchikey>  (46) 
VDOLBOGBGMUUOY-UHFFFAOYSA-N

>  <gnina_score_min>  (46) 
6.201

>  <gnina_score>  (46) 
6.117

>  <ref_mols>  (46) 
Z4971a

>  <HIPPO Compound ID>  (46) 
164469

>  <distance_score>  (46) 
0.52775

>  <rmsd(smina/fragmenstein)>  (46) 
0.281

>  <ref_pdb>  (46) 
Z4971a

>  <inspiration_score>  (46) 
None

$$$$
P104407
     RDKit          3D

 25 28  0  0  0  0  0  0  0  0999 V2000
   -3.5034    5.6872  -17.7644 C   0  0  0  0  0  0  0  0  0  0  0  0
   -4.9101    5.2995  -18.0389 C   0  0  0  0  0  0  0  0  0  0  0  0
   -5.4832    5.0935  -19.2762 C   0  0  0  0  0  0  0  0  0  0  0  0
   -6.7902    4.7273  -19.0930 N   0  0  0  0  0  0  0  0  0  0  0  0
   -7.0771    4.6537  -17.7490 C   0  0  0  0  0  0  0  0  0  0  0  0
   -8.2538    4.2869  -17.0844 C   0  0  0  0  0  0  0  0  0  0  0  0
   -9.6254    3.7557  -17.9685 Cl  0  0  0  0  0  0  0  0  0  0  0  0
   -8.3142    4.4350  -15.6967 C   0  0  0  0  0  0  0  0  0  0  0  0
   -7.2053    4.9282  -15.0109 C   0  0  0  0  0  0  0  0  0  0  0  0
   -7.3091    5.3501  -13.5962 C   0  0  0  0  0  0  0  0  0  0  0  0
   -7.0816    6.4696  -13.3541 O   0  0  0  0  0  0  0  0  0  0  0  0
   -7.6918    4.1815  -12.6618 N   0  0  0  0  0  0  0  0  0  0  0  0
   -7.9586    4.1662  -11.2927 C   0  0  0  0  0  0  0  0  0  0  0  0
   -7.8150    5.3458  -10.5338 C   0  0  0  0  0  0  0  0  0  0  0  0
   -8.0782    5.3589   -9.1639 C   0  0  0  0  0  0  0  0  0  0  0  0
   -8.4717    4.1712   -8.5871 C   0  0  0  0  0  0  0  0  0  0  0  0
   -8.6132    2.9909   -9.3152 C   0  0  0  0  0  0  0  0  0  0  0  0
   -8.3598    2.9722  -10.6794 C   0  0  0  0  0  0  0  0  0  0  0  0
   -9.0856    1.9011   -8.4109 C   0  0  0  0  0  0  0  0  0  0  0  0
   -9.2499    2.5933   -7.1417 N   0  0  0  0  0  0  0  0  0  0  0  0
  -10.0427    2.0383   -6.0776 C   0  0  0  0  0  0  0  0  0  0  0  0
   -8.9024    3.9267   -7.2067 C   0  0  0  0  0  0  0  0  0  0  0  0
   -8.9881    4.7869   -6.3488 O   0  0  0  0  0  0  0  0  0  0  0  0
   -6.0025    5.2197  -15.6724 C   0  0  0  0  0  0  0  0  0  0  0  0
   -5.9361    5.0782  -17.0695 C   0  0  0  0  0  0  0  0  0  0  0  0
  1  2  1  0
  2  3  2  0
  3  4  1  0
  4  5  1  0
  5  6  2  0
  6  7  1  0
  6  8  1  0
  8  9  2  0
  9 10  1  0
 10 11  2  0
 10 12  1  0
 12 13  1  0
 13 14  2  0
 14 15  1  0
 15 16  2  0
 16 17  1  0
 17 18  2  0
 17 19  1  0
 19 20  1  0
 20 21  1  0
 20 22  1  0
 22 23  2  0
  9 24  1  0
 24 25  2  0
 25  2  1  0
 25  5  1  0
 18 13  1  0
 22 16  1  0
M  END
>  <name>  (47) 
P104407

>  <alias>  (47) 
None

>  <smina_score_min>  (47) 
-10.054

>  <exports>  (47) 
['/opt/xchem-fragalysis-2/maxwin/BulkDock/OUTPUTS/openbind_xx01zvns2b_c2_elabs_1LOUTNY.sdf', '/opt/xchem-fragalysis-2/maxwin/BulkDock/OUTPUTS/openbind_xx01zvns2b_c2_elabs_1LSYIIV.sdf', '/opt/xchem-fragalysis-2/maxwin/openbind-hippo/xx01zvns2b/cycle_02/gnina/openbind_xx01zvns2b_c2_elabs_scored_6.2plus_products.sdf']

>  <tags>  (47) 
syndirella_placed,openbind_xx01zvns2b_c2_elabs,openbind_xx01zvns2b_c2_elabs_scored_6.2plus,syndirella_product,openbind_xx01zvns2b_c2_elabs_scored,openbind_xx01zvns2b_c1_elabs_filtered,openbind_xx01zvns2b_c2_elabs_scored_top80percent,BulkDock Fragalysis export,openbind_xx01zvns2b_c2_elabs_scored_top80percent_despaghettified

>  <subsites>  (47) 
1 - Z4590/B/203/1

>  <smiles>  (47) 
Cc1c[nH]c2c(Cl)cc(C(=O)Nc3ccc4c(c3)CN(C)C4=O)cc12

>  <HIPPO Pose ID>  (47) 
104407

>  <energy_score>  (47) 
-19.151436

>  <inchikey>  (47) 
PJTOUAKFIMDBTO-UHFFFAOYSA-N

>  <gnina_score_min>  (47) 
6.29

>  <gnina_score>  (47) 
6.178

>  <ref_mols>  (47) 
Z4971a

>  <HIPPO Compound ID>  (47) 
141757

>  <distance_score>  (47) 
0.458166

>  <rmsd(smina/fragmenstein)>  (47) 
0.325

>  <ref_pdb>  (47) 
Z4971a

>  <inspiration_score>  (47) 
None

$$$$
P104409
     RDKit          3D

 25 28  0  0  0  0  0  0  0  0999 V2000
  -10.6438    1.5738   -5.7935 C   0  0  0  0  0  0  0  0  0  0  0  0
   -9.4164    2.4407   -5.9600 C   0  0  0  0  0  0  0  0  0  0  0  0
   -9.4687    3.1538   -7.2165 N   0  0  0  0  0  0  0  0  0  0  0  0
   -8.5527    4.2961   -7.2345 C   0  0  0  0  0  0  0  0  0  0  0  0
   -8.2795    4.4888   -8.6833 C   0  0  0  0  0  0  0  0  0  0  0  0
   -7.7856    5.6021   -9.3201 C   0  0  0  0  0  0  0  0  0  0  0  0
   -7.6122    5.5246  -10.6961 C   0  0  0  0  0  0  0  0  0  0  0  0
   -7.9186    4.3485  -11.4081 C   0  0  0  0  0  0  0  0  0  0  0  0
   -7.6824    4.3104  -12.7777 N   0  0  0  0  0  0  0  0  0  0  0  0
   -7.2206    5.4186  -13.7458 C   0  0  0  0  0  0  0  0  0  0  0  0
   -6.8913    6.5189  -13.5353 O   0  0  0  0  0  0  0  0  0  0  0  0
   -7.1504    4.9540  -15.1428 C   0  0  0  0  0  0  0  0  0  0  0  0
   -8.2729    4.4597  -15.8030 C   0  0  0  0  0  0  0  0  0  0  0  0
   -8.2260    4.2854  -17.1867 C   0  0  0  0  0  0  0  0  0  0  0  0
   -9.6138    3.7537  -18.0430 Cl  0  0  0  0  0  0  0  0  0  0  0  0
   -7.0520    4.6332  -17.8671 C   0  0  0  0  0  0  0  0  0  0  0  0
   -6.7746    4.6880  -19.2124 N   0  0  0  0  0  0  0  0  0  0  0  0
   -5.4702    5.0549  -19.4134 C   0  0  0  0  0  0  0  0  0  0  0  0
   -4.8819    5.2641  -18.1849 C   0  0  0  0  0  0  0  0  0  0  0  0
   -3.4719    5.6468  -17.9230 C   0  0  0  0  0  0  0  0  0  0  0  0
   -5.8999    5.0562  -17.2071 C   0  0  0  0  0  0  0  0  0  0  0  0
   -5.9482    5.2145  -15.8157 C   0  0  0  0  0  0  0  0  0  0  0  0
   -8.4223    3.2252  -10.7486 C   0  0  0  0  0  0  0  0  0  0  0  0
   -8.6047    3.3202   -9.3797 C   0  0  0  0  0  0  0  0  0  0  0  0
   -9.1380    2.3198   -8.3998 C   0  0  0  0  0  0  0  0  0  0  0  0
  1  2  1  0
  2  3  1  0
  3  4  1  0
  4  5  1  0
  5  6  2  0
  6  7  1  0
  7  8  2  0
  8  9  1  0
  9 10  1  0
 10 11  2  0
 10 12  1  0
 12 13  2  0
 13 14  1  0
 14 15  1  0
 14 16  2  0
 16 17  1  0
 17 18  1  0
 18 19  2  0
 19 20  1  0
 19 21  1  0
 21 22  2  0
  8 23  1  0
 23 24  2  0
 24 25  1  0
 25  3  1  0
 24  5  1  0
 22 12  1  0
 21 16  1  0
M  END
>  <name>  (48) 
P104409

>  <alias>  (48) 
None

>  <smina_score_min>  (48) 
-9.445

>  <exports>  (48) 
['/opt/xchem-fragalysis-2/maxwin/BulkDock/OUTPUTS/openbind_xx01zvns2b_c2_elabs_1LOUTNY.sdf', '/opt/xchem-fragalysis-2/maxwin/BulkDock/OUTPUTS/openbind_xx01zvns2b_c2_elabs_1LSYIIV.sdf', '/opt/xchem-fragalysis-2/maxwin/openbind-hippo/xx01zvns2b/cycle_02/gnina/openbind_xx01zvns2b_c2_elabs_scored_6.2plus_products.sdf']

>  <tags>  (48) 
syndirella_placed,openbind_xx01zvns2b_c2_elabs,openbind_xx01zvns2b_c2_elabs_scored_6.2plus,syndirella_product,openbind_xx01zvns2b_c2_elabs_scored,openbind_xx01zvns2b_c1_elabs_filtered,openbind_xx01zvns2b_c2_elabs_scored_top80percent,BulkDock Fragalysis export,openbind_xx01zvns2b_c2_elabs_scored_top80percent_despaghettified

>  <subsites>  (48) 
1 - Z4590/B/203/1

>  <smiles>  (48) 
CCN1Cc2ccc(NC(=O)c3cc(Cl)c4[nH]cc(C)c4c3)cc2C1

>  <HIPPO Pose ID>  (48) 
104409

>  <energy_score>  (48) 
-3.679376

>  <inchikey>  (48) 
PZRZPZBXXUCMMI-UHFFFAOYSA-N

>  <gnina_score_min>  (48) 
6.293

>  <gnina_score>  (48) 
6.193

>  <ref_mols>  (48) 
Z4971a

>  <HIPPO Compound ID>  (48) 
164474

>  <distance_score>  (48) 
0.635715

>  <rmsd(smina/fragmenstein)>  (48) 
0.504

>  <ref_pdb>  (48) 
Z4971a

>  <inspiration_score>  (48) 
None

$$$$
P104410
     RDKit          3D

 26 29  0  0  0  0  0  0  0  0999 V2000
  -10.6747    1.8110   -5.8148 C   0  0  0  0  0  0  0  0  0  0  0  0
   -9.2219    2.1246   -6.0687 C   0  0  0  0  0  0  0  0  0  0  0  0
   -9.0256    2.8069   -7.3094 N   0  0  0  0  0  0  0  0  0  0  0  0
   -8.9649    2.0940   -8.5737 C   0  0  0  0  0  0  0  0  0  0  0  0
   -8.5974    3.1882   -9.5142 C   0  0  0  0  0  0  0  0  0  0  0  0
   -8.4244    3.1558  -10.8836 C   0  0  0  0  0  0  0  0  0  0  0  0
   -8.0524    4.3463  -11.5143 C   0  0  0  0  0  0  0  0  0  0  0  0
   -7.8433    4.3477  -12.8847 N   0  0  0  0  0  0  0  0  0  0  0  0
   -7.3672    5.4719  -13.8226 C   0  0  0  0  0  0  0  0  0  0  0  0
   -7.1487    6.5967  -13.6049 O   0  0  0  0  0  0  0  0  0  0  0  0
   -7.2165    4.9967  -15.2068 C   0  0  0  0  0  0  0  0  0  0  0  0
   -8.3099    4.4758  -15.8945 C   0  0  0  0  0  0  0  0  0  0  0  0
   -8.2189    4.2860  -17.2706 C   0  0  0  0  0  0  0  0  0  0  0  0
   -9.5790    3.7321  -18.1528 Cl  0  0  0  0  0  0  0  0  0  0  0  0
   -7.0287    4.6414  -17.9156 C   0  0  0  0  0  0  0  0  0  0  0  0
   -6.7134    4.6900  -19.2525 N   0  0  0  0  0  0  0  0  0  0  0  0
   -5.4068    5.0649  -19.4177 C   0  0  0  0  0  0  0  0  0  0  0  0
   -4.8566    5.2888  -18.1740 C   0  0  0  0  0  0  0  0  0  0  0  0
   -3.4572    5.6836  -17.8761 C   0  0  0  0  0  0  0  0  0  0  0  0
   -5.9018    5.0848  -17.2242 C   0  0  0  0  0  0  0  0  0  0  0  0
   -5.9949    5.2639  -15.8367 C   0  0  0  0  0  0  0  0  0  0  0  0
   -7.8730    5.5374  -10.7805 C   0  0  0  0  0  0  0  0  0  0  0  0
   -8.0588    5.5653   -9.4042 C   0  0  0  0  0  0  0  0  0  0  0  0
   -8.4155    4.3794   -8.8079 C   0  0  0  0  0  0  0  0  0  0  0  0
   -8.6750    4.1321   -7.3947 C   0  0  0  0  0  0  0  0  0  0  0  0
   -8.5837    4.9677   -6.5147 O   0  0  0  0  0  0  0  0  0  0  0  0
  1  2  1  0
  2  3  1  0
  3  4  1  0
  4  5  1  0
  5  6  2  0
  6  7  1  0
  7  8  1  0
  8  9  1  0
  9 10  2  0
  9 11  1  0
 11 12  2  0
 12 13  1  0
 13 14  1  0
 13 15  2  0
 15 16  1  0
 16 17  1  0
 17 18  2  0
 18 19  1  0
 18 20  1  0
 20 21  2  0
  7 22  2  0
 22 23  1  0
 23 24  2  0
 24 25  1  0
 25 26  2  0
 25  3  1  0
 24  5  1  0
 21 11  1  0
 20 15  1  0
M  END
>  <name>  (49) 
P104410

>  <alias>  (49) 
None

>  <smina_score_min>  (49) 
-9.998

>  <exports>  (49) 
['/opt/xchem-fragalysis-2/maxwin/BulkDock/OUTPUTS/openbind_xx01zvns2b_c2_elabs_1LOUTNY.sdf', '/opt/xchem-fragalysis-2/maxwin/BulkDock/OUTPUTS/openbind_xx01zvns2b_c2_elabs_1LSYIIV.sdf', '/opt/xchem-fragalysis-2/maxwin/openbind-hippo/xx01zvns2b/cycle_02/gnina/openbind_xx01zvns2b_c2_elabs_scored_6.2plus_products.sdf']

>  <tags>  (49) 
syndirella_placed,openbind_xx01zvns2b_c2_elabs,openbind_xx01zvns2b_c2_elabs_scored_6.2plus,syndirella_product,openbind_xx01zvns2b_c2_elabs_scored,openbind_xx01zvns2b_c1_elabs_filtered,openbind_xx01zvns2b_c2_elabs_scored_top80percent,BulkDock Fragalysis export,openbind_xx01zvns2b_c2_elabs_scored_top80percent_despaghettified

>  <subsites>  (49) 
1 - Z4590/B/203/1

>  <smiles>  (49) 
CCN1Cc2cc(NC(=O)c3cc(Cl)c4[nH]cc(C)c4c3)ccc2C1=O

>  <HIPPO Pose ID>  (49) 
104410

>  <energy_score>  (49) 
-21.894837

>  <inchikey>  (49) 
XYWHNEFAJWHZHV-UHFFFAOYSA-N

>  <gnina_score_min>  (49) 
6.293

>  <gnina_score>  (49) 
6.281

>  <ref_mols>  (49) 
Z4971a

>  <HIPPO Compound ID>  (49) 
141759

>  <distance_score>  (49) 
0.591965

>  <rmsd(smina/fragmenstein)>  (49) 
0.77

>  <ref_pdb>  (49) 
Z4971a

>  <inspiration_score>  (49) 
None

$$$$
P104411
     RDKit          3D

 26 29  0  0  0  0  0  0  0  0999 V2000
   -3.5347    5.7141  -17.7020 C   0  0  0  0  0  0  0  0  0  0  0  0
   -4.9327    5.3085  -17.9886 C   0  0  0  0  0  0  0  0  0  0  0  0
   -5.4967    5.1057  -19.2307 C   0  0  0  0  0  0  0  0  0  0  0  0
   -6.8027    4.7270  -19.0575 N   0  0  0  0  0  0  0  0  0  0  0  0
   -7.0965    4.6447  -17.7151 C   0  0  0  0  0  0  0  0  0  0  0  0
   -8.2758    4.2721  -17.0583 C   0  0  0  0  0  0  0  0  0  0  0  0
   -9.6455    3.7588  -17.9558 Cl  0  0  0  0  0  0  0  0  0  0  0  0
   -8.3423    4.4003  -15.6673 C   0  0  0  0  0  0  0  0  0  0  0  0
   -7.2363    4.8780  -14.9659 C   0  0  0  0  0  0  0  0  0  0  0  0
   -7.3330    5.2816  -13.5408 C   0  0  0  0  0  0  0  0  0  0  0  0
   -7.0084    6.3749  -13.2854 O   0  0  0  0  0  0  0  0  0  0  0  0
   -7.8874    4.1612  -12.6291 N   0  0  0  0  0  0  0  0  0  0  0  0
   -8.0627    4.1226  -11.2447 C   0  0  0  0  0  0  0  0  0  0  0  0
   -7.7420    5.2580  -10.4658 C   0  0  0  0  0  0  0  0  0  0  0  0
   -7.9349    5.2735   -9.0812 C   0  0  0  0  0  0  0  0  0  0  0  0
   -8.4442    4.1303   -8.5077 C   0  0  0  0  0  0  0  0  0  0  0  0
   -8.7505    3.0116   -9.2593 C   0  0  0  0  0  0  0  0  0  0  0  0
   -8.5717    2.9722  -10.6341 C   0  0  0  0  0  0  0  0  0  0  0  0
   -9.3614    2.0438   -8.3512 C   0  0  0  0  0  0  0  0  0  0  0  0
   -9.8242    0.9810   -8.7102 O   0  0  0  0  0  0  0  0  0  0  0  0
   -9.3812    2.6219   -7.1117 N   0  0  0  0  0  0  0  0  0  0  0  0
  -10.1030    2.0651   -5.9984 C   0  0  0  0  0  0  0  0  0  0  0  0
   -8.8627    3.8826   -7.1299 C   0  0  0  0  0  0  0  0  0  0  0  0
   -8.7991    4.7169   -6.2444 O   0  0  0  0  0  0  0  0  0  0  0  0
   -6.0334    5.1827  -15.6259 C   0  0  0  0  0  0  0  0  0  0  0  0
   -5.9602    5.0640  -17.0257 C   0  0  0  0  0  0  0  0  0  0  0  0
  1  2  1  0
  2  3  2  0
  3  4  1  0
  4  5  1  0
  5  6  2  0
  6  7  1  0
  6  8  1  0
  8  9  2  0
  9 10  1  0
 10 11  2  0
 10 12  1  0
 12 13  1  0
 13 14  2  0
 14 15  1  0
 15 16  2  0
 16 17  1  0
 17 18  2  0
 17 19  1  0
 19 20  2  0
 19 21  1  0
 21 22  1  0
 21 23  1  0
 23 24  2  0
  9 25  1  0
 25 26  2  0
 26  2  1  0
 26  5  1  0
 18 13  1  0
 23 16  1  0
M  END
>  <name>  (50) 
P104411

>  <alias>  (50) 
None

>  <smina_score_min>  (50) 
-9.752

>  <exports>  (50) 
['/opt/xchem-fragalysis-2/maxwin/BulkDock/OUTPUTS/openbind_xx01zvns2b_c2_elabs_1LOUTNY.sdf', '/opt/xchem-fragalysis-2/maxwin/BulkDock/OUTPUTS/openbind_xx01zvns2b_c2_elabs_1LSYIIV.sdf', '/opt/xchem-fragalysis-2/maxwin/openbind-hippo/xx01zvns2b/cycle_02/gnina/openbind_xx01zvns2b_c2_elabs_scored_6.2plus_products.sdf']

>  <tags>  (50) 
syndirella_placed,openbind_xx01zvns2b_c2_elabs,openbind_xx01zvns2b_c2_elabs_scored_6.2plus,syndirella_product,openbind_xx01zvns2b_c2_elabs_scored,openbind_xx01zvns2b_c1_elabs_filtered,openbind_xx01zvns2b_c2_elabs_scored_top80percent,BulkDock Fragalysis export,openbind_xx01zvns2b_c2_elabs_scored_top80percent_despaghettified

>  <subsites>  (50) 
1 - Z4590/B/203/1

>  <smiles>  (50) 
Cc1c[nH]c2c(Cl)cc(C(=O)Nc3ccc4c(c3)C(=O)N(C)C4=O)cc12

>  <HIPPO Pose ID>  (50) 
104411

>  <energy_score>  (50) 
-8.124719

>  <inchikey>  (50) 
QSWOAURHZNNATI-UHFFFAOYSA-N

>  <gnina_score_min>  (50) 
6.32

>  <gnina_score>  (50) 
6.211

>  <ref_mols>  (50) 
Z4971a

>  <HIPPO Compound ID>  (50) 
141758

>  <distance_score>  (50) 
0.423264

>  <rmsd(smina/fragmenstein)>  (50) 
0.276

>  <ref_pdb>  (50) 
Z4971a

>  <inspiration_score>  (50) 
None

$$$$
P104412
     RDKit          3D

 26 29  0  0  0  0  0  0  0  0999 V2000
   -3.5363    5.6829  -17.7020 C   0  0  0  0  0  0  0  0  0  0  0  0
   -4.9368    5.2880  -17.9963 C   0  0  0  0  0  0  0  0  0  0  0  0
   -5.4887    5.0747  -19.2423 C   0  0  0  0  0  0  0  0  0  0  0  0
   -6.7966    4.7025  -19.0789 N   0  0  0  0  0  0  0  0  0  0  0  0
   -7.1056    4.6352  -17.7395 C   0  0  0  0  0  0  0  0  0  0  0  0
   -8.2928    4.2703  -17.0929 C   0  0  0  0  0  0  0  0  0  0  0  0
   -9.6508    3.7419  -17.9984 Cl  0  0  0  0  0  0  0  0  0  0  0  0
   -8.3814    4.4315  -15.7079 C   0  0  0  0  0  0  0  0  0  0  0  0
   -7.2909    4.9391  -15.0049 C   0  0  0  0  0  0  0  0  0  0  0  0
   -7.4400    5.4245  -13.6124 C   0  0  0  0  0  0  0  0  0  0  0  0
   -7.1321    6.5334  -13.4093 O   0  0  0  0  0  0  0  0  0  0  0  0
   -7.9944    4.3465  -12.6528 N   0  0  0  0  0  0  0  0  0  0  0  0
   -8.1900    4.3769  -11.2707 C   0  0  0  0  0  0  0  0  0  0  0  0
   -8.0212    5.5858  -10.5750 C   0  0  0  0  0  0  0  0  0  0  0  0
   -8.1395    5.6450   -9.1861 C   0  0  0  0  0  0  0  0  0  0  0  0
   -8.4293    4.4805   -8.4984 C   0  0  0  0  0  0  0  0  0  0  0  0
   -8.6254    3.2837   -9.1869 C   0  0  0  0  0  0  0  0  0  0  0  0
   -8.5174    3.2112  -10.5737 C   0  0  0  0  0  0  0  0  0  0  0  0
   -8.9189    2.1893   -8.2127 C   0  0  0  0  0  0  0  0  0  0  0  0
   -8.8192    2.8046   -6.8623 N   0  0  0  0  0  0  0  0  0  0  0  0
   -9.9667    2.4568   -6.0431 C   0  0  0  0  0  0  0  0  0  0  0  0
   -8.4745    4.2431   -7.0085 C   0  0  0  0  0  0  0  0  0  0  0  0
   -7.0540    4.4764   -6.4484 C   0  0  0  0  0  0  0  0  0  0  0  0
   -9.3800    5.2362   -6.2650 C   0  0  0  0  0  0  0  0  0  0  0  0
   -6.0734    5.2199  -15.6480 C   0  0  0  0  0  0  0  0  0  0  0  0
   -5.9782    5.0668  -17.0428 C   0  0  0  0  0  0  0  0  0  0  0  0
  1  2  1  0
  2  3  2  0
  3  4  1  0
  4  5  1  0
  5  6  2  0
  6  7  1  0
  6  8  1  0
  8  9  2  0
  9 10  1  0
 10 11  2  0
 10 12  1  0
 12 13  1  0
 13 14  2  0
 14 15  1  0
 15 16  2  0
 16 17  1  0
 17 18  2  0
 17 19  1  0
 19 20  1  0
 20 21  1  0
 20 22  1  0
 22 23  1  0
 22 24  1  0
  9 25  1  0
 25 26  2  0
 26  2  1  0
 26  5  1  0
 18 13  1  0
 22 16  1  0
M  END
>  <name>  (51) 
P104412

>  <alias>  (51) 
None

>  <smina_score_min>  (51) 
-9.72

>  <exports>  (51) 
['/opt/xchem-fragalysis-2/maxwin/BulkDock/OUTPUTS/openbind_xx01zvns2b_c2_elabs_1LOUTNY.sdf', '/opt/xchem-fragalysis-2/maxwin/BulkDock/OUTPUTS/openbind_xx01zvns2b_c2_elabs_1LSYIIV.sdf', '/opt/xchem-fragalysis-2/maxwin/openbind-hippo/xx01zvns2b/cycle_02/gnina/openbind_xx01zvns2b_c2_elabs_scored_6.2plus_products.sdf']

>  <tags>  (51) 
syndirella_placed,openbind_xx01zvns2b_c2_elabs,openbind_xx01zvns2b_c2_elabs_scored_6.2plus,syndirella_product,openbind_xx01zvns2b_c2_elabs_scored,openbind_xx01zvns2b_c1_elabs_filtered,openbind_xx01zvns2b_c2_elabs_scored_top80percent,BulkDock Fragalysis export,openbind_xx01zvns2b_c2_elabs_scored_top80percent_despaghettified

>  <subsites>  (51) 
1 - Z4590/B/203/1

>  <smiles>  (51) 
Cc1c[nH]c2c(Cl)cc(C(=O)Nc3ccc4c(c3)CN(C)C4(C)C)cc12

>  <HIPPO Pose ID>  (51) 
104412

>  <energy_score>  (51) 
-57.412001

>  <inchikey>  (51) 
HAWKVDYRYGSSFN-UHFFFAOYSA-N

>  <gnina_score_min>  (51) 
6.364

>  <gnina_score>  (51) 
6.366

>  <ref_mols>  (51) 
Z4971a

>  <HIPPO Compound ID>  (51) 
164476

>  <distance_score>  (51) 
0.510956

>  <rmsd(smina/fragmenstein)>  (51) 
0.203

>  <ref_pdb>  (51) 
Z4971a

>  <inspiration_score>  (51) 
None

$$$$
P104414
     RDKit          3D

 26 29  0  0  0  0  0  0  0  0999 V2000
   -9.0653    3.6943   -3.0139 C   0  0  0  0  0  0  0  0  0  0  0  0
   -8.4869    3.8524   -4.4055 C   0  0  0  0  0  0  0  0  0  0  0  0
   -9.2958    3.1977   -5.5500 C   0  0  0  0  0  0  0  0  0  0  0  0
   -8.5792    3.4376   -6.7930 N   0  0  0  0  0  0  0  0  0  0  0  0
   -8.5385    4.8523   -7.1496 C   0  0  0  0  0  0  0  0  0  0  0  0
   -8.3754    4.8541   -8.6199 C   0  0  0  0  0  0  0  0  0  0  0  0
   -8.0505    5.9365   -9.3997 C   0  0  0  0  0  0  0  0  0  0  0  0
   -7.9100    5.7167  -10.7561 C   0  0  0  0  0  0  0  0  0  0  0  0
   -8.0947    4.4390  -11.3191 C   0  0  0  0  0  0  0  0  0  0  0  0
   -7.8358    4.3111  -12.6838 N   0  0  0  0  0  0  0  0  0  0  0  0
   -7.3167    5.3475  -13.7101 C   0  0  0  0  0  0  0  0  0  0  0  0
   -6.9519    6.4484  -13.5576 O   0  0  0  0  0  0  0  0  0  0  0  0
   -7.2190    4.8355  -15.0891 C   0  0  0  0  0  0  0  0  0  0  0  0
   -8.3413    4.3722  -15.7685 C   0  0  0  0  0  0  0  0  0  0  0  0
   -8.2873    4.2368  -17.1575 C   0  0  0  0  0  0  0  0  0  0  0  0
   -9.6782    3.7563  -18.0382 Cl  0  0  0  0  0  0  0  0  0  0  0  0
   -7.1073    4.5900  -17.8260 C   0  0  0  0  0  0  0  0  0  0  0  0
   -6.8249    4.6774  -19.1690 N   0  0  0  0  0  0  0  0  0  0  0  0
   -5.5184    5.0448  -19.3564 C   0  0  0  0  0  0  0  0  0  0  0  0
   -4.9338    5.2216  -18.1207 C   0  0  0  0  0  0  0  0  0  0  0  0
   -3.5247    5.6002  -17.8468 C   0  0  0  0  0  0  0  0  0  0  0  0
   -5.9544    4.9841  -17.1508 C   0  0  0  0  0  0  0  0  0  0  0  0
   -6.0096    5.1006  -15.7545 C   0  0  0  0  0  0  0  0  0  0  0  0
   -8.4744    3.3526  -10.5131 C   0  0  0  0  0  0  0  0  0  0  0  0
   -8.6080    3.5798   -9.1453 C   0  0  0  0  0  0  0  0  0  0  0  0
   -8.9958    2.6746   -7.9992 C   0  0  0  0  0  0  0  0  0  0  0  0
  1  2  1  0
  2  3  1  0
  3  4  1  0
  4  5  1  0
  5  6  1  0
  6  7  2  0
  7  8  1  0
  8  9  2  0
  9 10  1  0
 10 11  1  0
 11 12  2  0
 11 13  1  0
 13 14  2  0
 14 15  1  0
 15 16  1  0
 15 17  2  0
 17 18  1  0
 18 19  1  0
 19 20  2  0
 20 21  1  0
 20 22  1  0
 22 23  2  0
  9 24  1  0
 24 25  2  0
 25 26  1  0
 26  4  1  0
 25  6  1  0
 23 13  1  0
 22 17  1  0
M  END
>  <name>  (52) 
P104414

>  <alias>  (52) 
None

>  <smina_score_min>  (52) 
-8.814

>  <exports>  (52) 
['/opt/xchem-fragalysis-2/maxwin/BulkDock/OUTPUTS/openbind_xx01zvns2b_c2_elabs_1LOUTNY.sdf', '/opt/xchem-fragalysis-2/maxwin/BulkDock/OUTPUTS/openbind_xx01zvns2b_c2_elabs_1LSYIIV.sdf', '/opt/xchem-fragalysis-2/maxwin/openbind-hippo/xx01zvns2b/cycle_02/gnina/openbind_xx01zvns2b_c2_elabs_scored_6.2plus_products.sdf']

>  <tags>  (52) 
syndirella_placed,openbind_xx01zvns2b_c2_elabs,openbind_xx01zvns2b_c2_elabs_scored_6.2plus,syndirella_product,openbind_xx01zvns2b_c2_elabs_scored,openbind_xx01zvns2b_c1_elabs_filtered,openbind_xx01zvns2b_c2_elabs_scored_top80percent,BulkDock Fragalysis export,openbind_xx01zvns2b_c2_elabs_scored_top80percent_despaghettified

>  <subsites>  (52) 
1 - Z4590/B/203/1

>  <smiles>  (52) 
CCCN1Cc2ccc(NC(=O)c3cc(Cl)c4[nH]cc(C)c4c3)cc2C1

>  <HIPPO Pose ID>  (52) 
104414

>  <energy_score>  (52) 
-3.805594

>  <inchikey>  (52) 
COMPLOZDSUKZEM-UHFFFAOYSA-N

>  <gnina_score_min>  (52) 
6.232

>  <gnina_score>  (52) 
6.21

>  <ref_mols>  (52) 
Z4971a

>  <HIPPO Compound ID>  (52) 
164478

>  <distance_score>  (52) 
0.694297

>  <rmsd(smina/fragmenstein)>  (52) 
0.278

>  <ref_pdb>  (52) 
Z4971a

>  <inspiration_score>  (52) 
None

$$$$
P104418
     RDKit          3D

 28 31  0  0  0  0  0  0  0  0999 V2000
   -3.5273    5.6283  -17.7764 C   0  0  0  0  0  0  0  0  0  0  0  0
   -4.9263    5.2362  -18.0825 C   0  0  0  0  0  0  0  0  0  0  0  0
   -5.4781    5.0523  -19.3325 C   0  0  0  0  0  0  0  0  0  0  0  0
   -6.7871    4.6797  -19.1777 N   0  0  0  0  0  0  0  0  0  0  0  0
   -7.1007    4.5885  -17.8418 C   0  0  0  0  0  0  0  0  0  0  0  0
   -8.2952    4.2270  -17.2055 C   0  0  0  0  0  0  0  0  0  0  0  0
   -9.6616    3.7366  -18.1157 Cl  0  0  0  0  0  0  0  0  0  0  0  0
   -8.3881    4.3677  -15.8215 C   0  0  0  0  0  0  0  0  0  0  0  0
   -7.2911    4.8491  -15.1152 C   0  0  0  0  0  0  0  0  0  0  0  0
   -7.4651    5.3930  -13.7594 C   0  0  0  0  0  0  0  0  0  0  0  0
   -7.2729    6.5406  -13.6450 O   0  0  0  0  0  0  0  0  0  0  0  0
   -7.9054    4.3414  -12.7147 N   0  0  0  0  0  0  0  0  0  0  0  0
   -8.1022    4.4586  -11.3400 C   0  0  0  0  0  0  0  0  0  0  0  0
   -7.9170    5.7322  -10.7687 C   0  0  0  0  0  0  0  0  0  0  0  0
   -8.0626    5.9427   -9.4099 C   0  0  0  0  0  0  0  0  0  0  0  0
   -8.3844    4.8543   -8.6364 C   0  0  0  0  0  0  0  0  0  0  0  0
   -8.5857    3.5806   -9.1708 C   0  0  0  0  0  0  0  0  0  0  0  0
   -8.4545    3.3621  -10.5385 C   0  0  0  0  0  0  0  0  0  0  0  0
   -8.9619    2.6623   -8.0383 C   0  0  0  0  0  0  0  0  0  0  0  0
   -8.5928    3.4290   -6.8095 N   0  0  0  0  0  0  0  0  0  0  0  0
   -9.4017    3.1436   -5.6377 C   0  0  0  0  0  0  0  0  0  0  0  0
   -8.6692    3.4631   -4.3135 C   0  0  0  0  0  0  0  0  0  0  0  0
   -8.3810    4.9323   -3.9456 C   0  0  0  0  0  0  0  0  0  0  0  0
   -8.7963    5.2088   -2.4939 C   0  0  0  0  0  0  0  0  0  0  0  0
   -6.8849    5.2514   -4.0698 C   0  0  0  0  0  0  0  0  0  0  0  0
   -8.5901    4.8430   -7.1695 C   0  0  0  0  0  0  0  0  0  0  0  0
   -6.0646    5.1236  -15.7421 C   0  0  0  0  0  0  0  0  0  0  0  0
   -5.9694    4.9955  -17.1367 C   0  0  0  0  0  0  0  0  0  0  0  0
  1  2  1  0
  2  3  2  0
  3  4  1  0
  4  5  1  0
  5  6  2  0
  6  7  1  0
  6  8  1  0
  8  9  2  0
  9 10  1  0
 10 11  2  0
 10 12  1  0
 12 13  1  0
 13 14  2  0
 14 15  1  0
 15 16  2  0
 16 17  1  0
 17 18  2  0
 17 19  1  0
 19 20  1  0
 20 21  1  0
 21 22  1  0
 22 23  1  0
 23 24  1  0
 23 25  1  0
 20 26  1  0
  9 27  1  0
 27 28  2  0
 28  2  1  0
 28  5  1  0
 18 13  1  0
 26 16  1  0
M  END
>  <name>  (53) 
P104418

>  <alias>  (53) 
None

>  <smina_score_min>  (53) 
-8.564

>  <exports>  (53) 
['/opt/xchem-fragalysis-2/maxwin/BulkDock/OUTPUTS/openbind_xx01zvns2b_c2_elabs_1LOUTNY.sdf', '/opt/xchem-fragalysis-2/maxwin/BulkDock/OUTPUTS/openbind_xx01zvns2b_c2_elabs_1LSYIIV.sdf', '/opt/xchem-fragalysis-2/maxwin/openbind-hippo/xx01zvns2b/cycle_02/gnina/openbind_xx01zvns2b_c2_elabs_scored_6.2plus_products.sdf']

>  <tags>  (53) 
syndirella_placed,openbind_xx01zvns2b_c2_elabs,openbind_xx01zvns2b_c2_elabs_scored_6.2plus,syndirella_product,openbind_xx01zvns2b_c2_elabs_scored,openbind_xx01zvns2b_c1_elabs_filtered,openbind_xx01zvns2b_c2_elabs_scored_top80percent,BulkDock Fragalysis export,openbind_xx01zvns2b_c2_elabs_scored_top80percent_despaghettified

>  <subsites>  (53) 
1 - Z4590/B/203/1

>  <smiles>  (53) 
Cc1c[nH]c2c(Cl)cc(C(=O)Nc3ccc4c(c3)CN(CCC(C)C)C4)cc12

>  <HIPPO Pose ID>  (53) 
104418

>  <energy_score>  (53) 
-2.988091

>  <inchikey>  (53) 
VMOQTKOSYUSKKR-UHFFFAOYSA-N

>  <gnina_score_min>  (53) 
6.217

>  <gnina_score>  (53) 
6.246

>  <ref_mols>  (53) 
Z4971a

>  <HIPPO Compound ID>  (53) 
164487

>  <distance_score>  (53) 
0.713661

>  <rmsd(smina/fragmenstein)>  (53) 
0.476

>  <ref_pdb>  (53) 
Z4971a

>  <inspiration_score>  (53) 
None

$$$$
P104428
     RDKit          3D

 32 36  0  0  0  0  0  0  0  0999 V2000
   -3.5744    5.5958  -17.6763 C   0  0  0  0  0  0  0  0  0  0  0  0
   -4.9679    5.2040  -18.0080 C   0  0  0  0  0  0  0  0  0  0  0  0
   -5.5023    5.0517  -19.2703 C   0  0  0  0  0  0  0  0  0  0  0  0
   -6.8135    4.6766  -19.1434 N   0  0  0  0  0  0  0  0  0  0  0  0
   -7.1452    4.5506  -17.8144 C   0  0  0  0  0  0  0  0  0  0  0  0
   -8.3514    4.1817  -17.2046 C   0  0  0  0  0  0  0  0  0  0  0  0
   -9.7108    3.7396  -18.1475 Cl  0  0  0  0  0  0  0  0  0  0  0  0
   -8.4662    4.2846  -15.8189 C   0  0  0  0  0  0  0  0  0  0  0  0
   -7.3789    4.7360  -15.0811 C   0  0  0  0  0  0  0  0  0  0  0  0
   -7.6059    5.3345  -13.7583 C   0  0  0  0  0  0  0  0  0  0  0  0
   -7.4814    6.4982  -13.7289 O   0  0  0  0  0  0  0  0  0  0  0  0
   -7.9921    4.3363  -12.6360 N   0  0  0  0  0  0  0  0  0  0  0  0
   -8.2051    4.5444  -11.2700 C   0  0  0  0  0  0  0  0  0  0  0  0
   -8.1194    5.8851  -10.8454 C   0  0  0  0  0  0  0  0  0  0  0  0
   -8.2074    6.2339   -9.5177 C   0  0  0  0  0  0  0  0  0  0  0  0
   -8.3686    5.2125   -8.6176 C   0  0  0  0  0  0  0  0  0  0  0  0
   -8.5134    3.8656   -8.9861 C   0  0  0  0  0  0  0  0  0  0  0  0
   -8.4415    3.5128  -10.3373 C   0  0  0  0  0  0  0  0  0  0  0  0
   -8.6802    3.0615   -7.7006 C   0  0  0  0  0  0  0  0  0  0  0  0
   -8.0756    4.0075   -6.7122 N   0  0  0  0  0  0  0  0  0  0  0  0
   -8.0551    3.9799   -5.3319 C   0  0  0  0  0  0  0  0  0  0  0  0
   -6.9559    4.5840   -4.6834 C   0  0  0  0  0  0  0  0  0  0  0  0
   -6.9308    4.8205   -3.3079 C   0  0  0  0  0  0  0  0  0  0  0  0
   -8.0328    4.4836   -2.5249 C   0  0  0  0  0  0  0  0  0  0  0  0
   -8.0295    4.8132   -1.0434 C   0  0  0  0  0  0  0  0  0  0  0  0
   -8.8269    3.8345   -0.1744 C   0  0  0  0  0  0  0  0  0  0  0  0
   -8.5333    6.2417   -0.8214 C   0  0  0  0  0  0  0  0  0  0  0  0
   -9.1234    3.8854   -3.1670 C   0  0  0  0  0  0  0  0  0  0  0  0
   -9.1244    3.5956   -4.5430 C   0  0  0  0  0  0  0  0  0  0  0  0
   -8.3532    5.3751   -7.1484 C   0  0  0  0  0  0  0  0  0  0  0  0
   -6.1397    5.0199  -15.6839 C   0  0  0  0  0  0  0  0  0  0  0  0
   -6.0224    4.9319  -17.0817 C   0  0  0  0  0  0  0  0  0  0  0  0
  1  2  1  0
  2  3  2  0
  3  4  1  0
  4  5  1  0
  5  6  2  0
  6  7  1  0
  6  8  1  0
  8  9  2  0
  9 10  1  0
 10 11  2  0
 10 12  1  0
 12 13  1  0
 13 14  2  0
 14 15  1  0
 15 16  2  0
 16 17  1  0
 17 18  2  0
 17 19  1  0
 19 20  1  0
 20 21  1  0
 21 22  2  0
 22 23  1  0
 23 24  2  0
 24 25  1  0
 25 26  1  0
 25 27  1  0
 24 28  1  0
 28 29  2  0
 20 30  1  0
  9 31  1  0
 31 32  2  0
 32  2  1  0
 32  5  1  0
 18 13  1  0
 29 21  1  0
 30 16  1  0
M  END
>  <name>  (54) 
P104428

>  <alias>  (54) 
None

>  <smina_score_min>  (54) 
-9.685

>  <exports>  (54) 
['/opt/xchem-fragalysis-2/maxwin/BulkDock/OUTPUTS/openbind_xx01zvns2b_c2_elabs_1LOUTNY.sdf', '/opt/xchem-fragalysis-2/maxwin/BulkDock/OUTPUTS/openbind_xx01zvns2b_c2_elabs_1LSYIIV.sdf', '/opt/xchem-fragalysis-2/maxwin/openbind-hippo/xx01zvns2b/cycle_02/gnina/openbind_xx01zvns2b_c2_elabs_scored_6.2plus_products.sdf']

>  <tags>  (54) 
syndirella_placed,openbind_xx01zvns2b_c2_elabs,openbind_xx01zvns2b_c2_elabs_scored_6.2plus,syndirella_product,openbind_xx01zvns2b_c2_elabs_scored,openbind_xx01zvns2b_c1_elabs_filtered,openbind_xx01zvns2b_c2_elabs_scored_top80percent,BulkDock Fragalysis export,openbind_xx01zvns2b_c2_elabs_scored_top80percent_despaghettified

>  <subsites>  (54) 
1 - Z4590/B/203/1

>  <smiles>  (54) 
Cc1c[nH]c2c(Cl)cc(C(=O)Nc3ccc4c(c3)CN(c3ccc(C(C)C)cc3)C4)cc12

>  <HIPPO Pose ID>  (54) 
104428

>  <energy_score>  (54) 
-7.249028

>  <inchikey>  (54) 
CJTNCTJOWRTOKT-UHFFFAOYSA-N

>  <gnina_score_min>  (54) 
6.201

>  <gnina_score>  (54) 
6.265

>  <ref_mols>  (54) 
Z4971a

>  <HIPPO Compound ID>  (54) 
164504

>  <distance_score>  (54) 
0.918981

>  <rmsd(smina/fragmenstein)>  (54) 
0.433

>  <ref_pdb>  (54) 
Z4971a

>  <inspiration_score>  (54) 
None

$$$$
P118360
     RDKit          3D

 31 35  0  0  0  0  0  0  0  0999 V2000
   -9.0784    2.7457  -11.3478 C   0  0  0  0  0  0  0  0  0  0  0  0
   -8.6162    4.1114  -11.8639 C   0  0  2  0  0  0  0  0  0  0  0  0
   -8.2688    4.1012  -13.2623 N   0  0  0  0  0  0  0  0  0  0  0  0
   -7.9399    5.2678  -14.2247 C   0  0  0  0  0  0  0  0  0  0  0  0
   -7.8238    6.4098  -14.0164 O   0  0  0  0  0  0  0  0  0  0  0  0
   -7.8783    4.7191  -15.6245 C   0  0  0  0  0  0  0  0  0  0  0  0
   -9.0430    4.1957  -16.0732 C   0  0  0  0  0  0  0  0  0  0  0  0
   -9.2841    3.8999  -17.4722 C   0  0  0  0  0  0  0  0  0  0  0  0
   -8.3161    4.1689  -18.3552 C   0  0  0  0  0  0  0  0  0  0  0  0
   -7.1165    4.7026  -17.9008 N   0  0  0  0  0  0  0  0  0  0  0  0
   -6.0142    5.0444  -18.6335 C   0  0  0  0  0  0  0  0  0  0  0  0
   -5.0725    5.4615  -17.7187 C   0  0  0  0  0  0  0  0  0  0  0  0
   -3.6606    5.8719  -17.9951 C   0  0  0  0  0  0  0  0  0  0  0  0
   -3.3572    7.1830  -17.4239 N   0  0  0  0  0  0  0  0  0  0  0  0
   -4.1729    8.2730  -17.9450 C   0  0  0  0  0  0  0  0  0  0  0  0
   -3.4328    9.5003  -17.4381 C   0  0  0  0  0  0  0  0  0  0  0  0
   -1.9764    9.0631  -17.3171 C   0  0  0  0  0  0  0  0  0  0  0  0
   -1.9732    7.5800  -17.6575 C   0  0  0  0  0  0  0  0  0  0  0  0
   -5.6000    5.4340  -16.4400 N   0  0  0  0  0  0  0  0  0  0  0  0
   -6.8349    4.9884  -16.5617 C   0  0  0  0  0  0  0  0  0  0  0  0
   -7.5763    4.5666  -10.8847 C   0  0  0  0  0  0  0  0  0  0  0  0
   -7.9286    5.5251   -9.9212 C   0  0  0  0  0  0  0  0  0  0  0  0
   -7.2174    5.6039   -8.7357 C   0  0  0  0  0  0  0  0  0  0  0  0
   -6.1451    4.7409   -8.5206 C   0  0  0  0  0  0  0  0  0  0  0  0
   -5.7482    3.8296   -9.5070 C   0  0  0  0  0  0  0  0  0  0  0  0
   -4.6034    3.0074   -9.3335 N   0  0  0  0  0  0  0  0  0  0  0  0
   -3.5311    3.2747   -8.4955 C   0  0  0  0  0  0  0  0  0  0  0  0
   -2.5282    2.3588   -8.7311 C   0  0  0  0  0  0  0  0  0  0  0  0
   -2.9982    1.4703   -9.7190 C   0  0  0  0  0  0  0  0  0  0  0  0
   -4.2689    1.8778  -10.0607 C   0  0  0  0  0  0  0  0  0  0  0  0
   -6.4409    3.7729  -10.7078 C   0  0  0  0  0  0  0  0  0  0  0  0
  2  1  1  1
  2  3  1  0
  3  4  1  0
  4  5  2  0
  4  6  1  0
  6  7  2  0
  7  8  1  0
  8  9  2  0
  9 10  1  0
 10 11  1  0
 11 12  2  0
 12 13  1  0
 13 14  1  0
 14 15  1  0
 15 16  1  0
 16 17  1  0
 17 18  1  0
 12 19  1  0
 19 20  2  0
  2 21  1  0
 21 22  2  0
 22 23  1  0
 23 24  2  0
 24 25  1  0
 25 26  1  0
 26 27  1  0
 27 28  2  0
 28 29  1  0
 29 30  2  0
 25 31  2  0
 20  6  1  0
 31 21  1  0
 20 10  1  0
 30 26  1  0
 18 14  1  0
M  END
>  <name>  (55) 
P118360

>  <alias>  (55) 
None

>  <smina_score_min>  (55) 
-6.962

>  <exports>  (55) 
['/opt/xchem-fragalysis-2/maxwin/BulkDock/OUTPUTS/openbind_xx01zvns2b_c2_elabs_1LOUTNY.sdf', '/opt/xchem-fragalysis-2/maxwin/BulkDock/OUTPUTS/openbind_xx01zvns2b_c2_elabs_1LSYIIV.sdf', '/opt/xchem-fragalysis-2/maxwin/openbind-hippo/xx01zvns2b/cycle_02/gnina/openbind_xx01zvns2b_c2_elabs_scored_6.2plus_products.sdf']

>  <tags>  (55) 
syndirella_placed,openbind_xx01zvns2b_c2_elabs,openbind_xx01zvns2b_c2_elabs_scored_6.2plus,syndirella_product,openbind_xx01zvns2b_c2_elabs_scored,openbind_xx01zvns2b_c2_elabs_scored_top80percent,BulkDock Fragalysis export,openbind_xx01zvns2b_c2_elabs_scored_top80percent_despaghettified

>  <subsites>  (55) 
1 - Z4590/B/203/1

>  <smiles>  (55) 
C[C@H](NC(=O)c1cccn2cc(CN3CCCC3)nc12)c1cccc(-n2cccc2)c1

>  <HIPPO Pose ID>  (55) 
118360

>  <energy_score>  (55) 
-16.812909

>  <inchikey>  (55) 
LUQSVNBXVATDBR-IBGZPJMESA-N

>  <gnina_score_min>  (55) 
6.211

>  <gnina_score>  (55) 
6.33

>  <ref_mols>  (55) 
Z3093a

>  <HIPPO Compound ID>  (55) 
182131

>  <distance_score>  (55) 
1.415166

>  <rmsd(smina/fragmenstein)>  (55) 
0.459

>  <ref_pdb>  (55) 
Z3093a

>  <inspiration_score>  (55) 
None

$$$$
P118384
     RDKit          3D

 32 36  0  0  0  0  0  0  0  0999 V2000
   -3.8736    1.2399  -10.8844 C   0  0  0  0  0  0  0  0  0  0  0  0
   -4.1851    2.1041   -9.7428 N   0  0  0  0  0  0  0  0  0  0  0  0
   -3.1955    3.1812   -9.6544 C   0  0  0  0  0  0  0  0  0  0  0  0
   -5.5450    2.6994   -9.8605 C   0  0  0  0  0  0  0  0  0  0  0  0
   -6.7013    1.6654   -9.8589 C   0  0  0  0  0  0  0  0  0  0  0  0
   -8.1063    2.1230   -9.8731 N   0  0  0  0  0  0  0  0  0  0  0  0
   -8.4495    3.1307   -8.8592 C   0  0  0  0  0  0  0  0  0  0  0  0
   -8.3412    4.4287   -9.5952 C   0  0  0  0  0  0  0  0  0  0  0  0
   -8.2120    5.7066   -9.0974 C   0  0  0  0  0  0  0  0  0  0  0  0
   -7.9888    6.7327  -10.0133 C   0  0  0  0  0  0  0  0  0  0  0  0
   -7.8829    6.4637  -11.3923 C   0  0  0  0  0  0  0  0  0  0  0  0
   -8.0353    5.1676  -11.8838 C   0  0  0  0  0  0  0  0  0  0  0  0
   -7.8731    4.8611  -13.2300 N   0  0  0  0  0  0  0  0  0  0  0  0
   -7.5028    5.7651  -14.4277 C   0  0  0  0  0  0  0  0  0  0  0  0
   -7.2012    6.8919  -14.4598 O   0  0  0  0  0  0  0  0  0  0  0  0
   -7.6869    4.9864  -15.7013 C   0  0  0  0  0  0  0  0  0  0  0  0
   -8.8915    4.4401  -15.9811 C   0  0  0  0  0  0  0  0  0  0  0  0
   -9.2409    3.9985  -17.3245 C   0  0  0  0  0  0  0  0  0  0  0  0
   -8.3431    4.1490  -18.3093 C   0  0  0  0  0  0  0  0  0  0  0  0
   -7.0954    4.6830  -18.0094 N   0  0  0  0  0  0  0  0  0  0  0  0
   -6.0417    4.9466  -18.8437 C   0  0  0  0  0  0  0  0  0  0  0  0
   -5.0353    5.4382  -18.0388 C   0  0  0  0  0  0  0  0  0  0  0  0
   -3.6644    5.8865  -18.4411 C   0  0  0  0  0  0  0  0  0  0  0  0
   -3.2491    7.0792  -17.7002 N   0  0  0  0  0  0  0  0  0  0  0  0
   -4.1029    8.2445  -17.9116 C   0  0  0  0  0  0  0  0  0  0  0  0
   -3.2736    9.3756  -17.3240 C   0  0  0  0  0  0  0  0  0  0  0  0
   -1.8266    8.9041  -17.4277 C   0  0  0  0  0  0  0  0  0  0  0  0
   -1.9003    7.5128  -18.0396 C   0  0  0  0  0  0  0  0  0  0  0  0
   -5.4588    5.4866  -16.7279 N   0  0  0  0  0  0  0  0  0  0  0  0
   -6.7093    5.0798  -16.7342 C   0  0  0  0  0  0  0  0  0  0  0  0
   -8.2936    4.1709  -10.9711 C   0  0  0  0  0  0  0  0  0  0  0  0
   -8.4466    2.7092  -11.1764 C   0  0  0  0  0  0  0  0  0  0  0  0
  1  2  1  0
  2  3  1  0
  2  4  1  0
  4  5  1  0
  5  6  1  0
  6  7  1  0
  7  8  1  0
  8  9  2  0
  9 10  1  0
 10 11  2  0
 11 12  1  0
 12 13  1  0
 13 14  1  0
 14 15  2  0
 14 16  1  0
 16 17  2  0
 17 18  1  0
 18 19  2  0
 19 20  1  0
 20 21  1  0
 21 22  2  0
 22 23  1  0
 23 24  1  0
 24 25  1  0
 25 26  1  0
 26 27  1  0
 27 28  1  0
 22 29  1  0
 29 30  2  0
 12 31  2  0
 31 32  1  0
 32  6  1  0
 31  8  1  0
 30 16  1  0
 30 20  1  0
 28 24  1  0
M  END
>  <name>  (56) 
P118384

>  <alias>  (56) 
None

>  <smina_score_min>  (56) 
-6.894

>  <exports>  (56) 
['/opt/xchem-fragalysis-2/maxwin/BulkDock/OUTPUTS/openbind_xx01zvns2b_c2_elabs_1LOUTNY.sdf', '/opt/xchem-fragalysis-2/maxwin/BulkDock/OUTPUTS/openbind_xx01zvns2b_c2_elabs_1LSYIIV.sdf', '/opt/xchem-fragalysis-2/maxwin/openbind-hippo/xx01zvns2b/cycle_02/gnina/openbind_xx01zvns2b_c2_elabs_scored_6.2plus_products.sdf']

>  <tags>  (56) 
syndirella_placed,openbind_xx01zvns2b_c2_elabs,openbind_xx01zvns2b_c2_elabs_scored_6.2plus,syndirella_product,openbind_xx01zvns2b_c2_elabs_scored,openbind_xx01zvns2b_c2_elabs_scored_top80percent,BulkDock Fragalysis export,openbind_xx01zvns2b_c2_elabs_scored_top80percent_despaghettified

>  <subsites>  (56) 
1 - Z4590/B/203/1

>  <smiles>  (56) 
CN(C)CCN1Cc2cccc(NC(=O)c3cccn4cc(CN5CCCC5)nc34)c2C1

>  <HIPPO Pose ID>  (56) 
118384

>  <energy_score>  (56) 
-73.204619

>  <inchikey>  (56) 
DFXISTYINXKUFH-UHFFFAOYSA-N

>  <gnina_score_min>  (56) 
6.344

>  <gnina_score>  (56) 
6.454

>  <ref_mols>  (56) 
Z3093a

>  <HIPPO Compound ID>  (56) 
182162

>  <distance_score>  (56) 
0.74486

>  <rmsd(smina/fragmenstein)>  (56) 
1.146

>  <ref_pdb>  (56) 
Z3093a

>  <inspiration_score>  (56) 
None

$$$$
P118386
     RDKit          3D

 32 37  0  0  0  0  0  0  0  0999 V2000
   -7.3878    6.7933  -14.4764 O   0  0  0  0  0  0  0  0  0  0  0  0
   -7.6687    5.6609  -14.4552 C   0  0  0  0  0  0  0  0  0  0  0  0
   -8.1011    4.7575  -13.2766 N   0  0  0  0  0  0  0  0  0  0  0  0
   -8.1828    5.0273  -11.9152 C   0  0  0  0  0  0  0  0  0  0  0  0
   -8.2174    6.3482  -11.4552 C   0  0  0  0  0  0  0  0  0  0  0  0
   -8.2965    6.6433  -10.0822 C   0  0  0  0  0  0  0  0  0  0  0  0
   -8.3096    5.6228   -9.1380 C   0  0  0  0  0  0  0  0  0  0  0  0
   -8.2423    4.3248   -9.6024 C   0  0  0  0  0  0  0  0  0  0  0  0
   -8.2063    4.0240  -10.9729 C   0  0  0  0  0  0  0  0  0  0  0  0
   -8.0204    2.5509  -11.1241 C   0  0  0  0  0  0  0  0  0  0  0  0
   -7.4280    2.1673   -9.8201 N   0  0  0  0  0  0  0  0  0  0  0  0
   -6.0575    2.1122   -9.8575 C   0  0  0  0  0  0  0  0  0  0  0  0
   -5.2349    3.0476   -9.4211 N   0  0  0  0  0  0  0  0  0  0  0  0
   -3.9254    2.7182   -9.6970 C   0  0  0  0  0  0  0  0  0  0  0  0
   -3.7365    1.5082  -10.3204 C   0  0  0  0  0  0  0  0  0  0  0  0
   -5.2488    0.7569  -10.5750 S   0  0  0  0  0  0  0  0  0  0  0  0
   -8.0173    3.0723   -8.8105 C   0  0  0  0  0  0  0  0  0  0  0  0
   -7.7490    4.8797  -15.7351 C   0  0  0  0  0  0  0  0  0  0  0  0
   -8.9380    4.3266  -16.0658 C   0  0  0  0  0  0  0  0  0  0  0  0
   -9.2448    3.9194  -17.4282 C   0  0  0  0  0  0  0  0  0  0  0  0
   -8.3249    4.1158  -18.3828 C   0  0  0  0  0  0  0  0  0  0  0  0
   -7.0950    4.6608  -18.0345 N   0  0  0  0  0  0  0  0  0  0  0  0
   -6.0255    4.9585  -18.8355 C   0  0  0  0  0  0  0  0  0  0  0  0
   -5.0425    5.4328  -17.9930 C   0  0  0  0  0  0  0  0  0  0  0  0
   -3.6603    5.8816  -18.3536 C   0  0  0  0  0  0  0  0  0  0  0  0
   -3.2781    7.0951  -17.6300 N   0  0  0  0  0  0  0  0  0  0  0  0
   -4.1330    8.2475  -17.8970 C   0  0  0  0  0  0  0  0  0  0  0  0
   -3.3291    9.3991  -17.3139 C   0  0  0  0  0  0  0  0  0  0  0  0
   -1.8758    8.9392  -17.3700 C   0  0  0  0  0  0  0  0  0  0  0  0
   -1.9225    7.5299  -17.9418 C   0  0  0  0  0  0  0  0  0  0  0  0
   -5.5009    5.4505  -16.6919 N   0  0  0  0  0  0  0  0  0  0  0  0
   -6.7456    5.0250  -16.7382 C   0  0  0  0  0  0  0  0  0  0  0  0
  1  2  2  0
  2  3  1  0
  3  4  1  0
  4  5  2  0
  5  6  1  0
  6  7  2  0
  7  8  1  0
  8  9  2  0
  9 10  1  0
 10 11  1  0
 11 12  1  0
 12 13  2  0
 13 14  1  0
 14 15  2  0
 15 16  1  0
 11 17  1  0
  2 18  1  0
 18 19  2  0
 19 20  1  0
 20 21  2  0
 21 22  1  0
 22 23  1  0
 23 24  2  0
 24 25  1  0
 25 26  1  0
 26 27  1  0
 27 28  1  0
 28 29  1  0
 29 30  1  0
 24 31  1  0
 31 32  2  0
  9  4  1  0
 16 12  1  0
 32 18  1  0
 17  8  1  0
 32 22  1  0
 30 26  1  0
M  END
>  <name>  (57) 
P118386

>  <alias>  (57) 
None

>  <smina_score_min>  (57) 
-7.476

>  <exports>  (57) 
['/opt/xchem-fragalysis-2/maxwin/BulkDock/OUTPUTS/openbind_xx01zvns2b_c2_elabs_1LOUTNY.sdf', '/opt/xchem-fragalysis-2/maxwin/BulkDock/OUTPUTS/openbind_xx01zvns2b_c2_elabs_1LSYIIV.sdf', '/opt/xchem-fragalysis-2/maxwin/openbind-hippo/xx01zvns2b/cycle_02/gnina/openbind_xx01zvns2b_c2_elabs_scored_6.2plus_products.sdf']

>  <tags>  (57) 
syndirella_placed,openbind_xx01zvns2b_c2_elabs,openbind_xx01zvns2b_c2_elabs_scored_6.2plus,syndirella_product,openbind_xx01zvns2b_c2_elabs_scored,openbind_xx01zvns2b_c2_elabs_scored_top80percent,BulkDock Fragalysis export,openbind_xx01zvns2b_c2_elabs_scored_top80percent_despaghettified

>  <subsites>  (57) 
1 - Z4590/B/203/1

>  <smiles>  (57) 
O=C(Nc1cccc2c1CN(c1nccs1)C2)c1cccn2cc(CN3CCCC3)nc12

>  <HIPPO Pose ID>  (57) 
118386

>  <energy_score>  (57) 
-22.986121

>  <inchikey>  (57) 
SVDDGJMDIKVPRM-UHFFFAOYSA-N

>  <gnina_score_min>  (57) 
6.316

>  <gnina_score>  (57) 
6.555

>  <ref_mols>  (57) 
Z3093a

>  <HIPPO Compound ID>  (57) 
182164

>  <distance_score>  (57) 
0.743604

>  <rmsd(smina/fragmenstein)>  (57) 
0.967

>  <ref_pdb>  (57) 
Z3093a

>  <inspiration_score>  (57) 
None

$$$$
P118401
     RDKit          3D

 33 37  0  0  0  0  0  0  0  0999 V2000
   -7.3765    8.6314  -11.9886 C   0  0  0  0  0  0  0  0  0  0  0  0
   -8.3792    7.5111  -12.0580 C   0  0  0  0  0  0  0  0  0  0  0  0
   -9.4159    7.5717  -12.7158 O   0  0  0  0  0  0  0  0  0  0  0  0
   -8.1533    6.3301  -11.1981 C   0  0  0  0  0  0  0  0  0  0  0  0
   -8.2579    6.5752   -9.8054 C   0  0  0  0  0  0  0  0  0  0  0  0
   -8.3546    5.5221   -8.8940 C   0  0  0  0  0  0  0  0  0  0  0  0
   -8.4532    5.9174   -7.0502 Br  0  0  0  0  0  0  0  0  0  0  0  0
   -8.3756    4.2447   -9.4029 C   0  0  0  0  0  0  0  0  0  0  0  0
   -8.2009    4.0126  -10.7652 C   0  0  0  0  0  0  0  0  0  0  0  0
   -8.0736    5.0247  -11.7089 C   0  0  0  0  0  0  0  0  0  0  0  0
   -7.9039    4.7090  -13.0667 N   0  0  0  0  0  0  0  0  0  0  0  0
   -7.4265    5.5906  -14.2570 C   0  0  0  0  0  0  0  0  0  0  0  0
   -7.0289    6.6910  -14.2734 O   0  0  0  0  0  0  0  0  0  0  0  0
   -7.6361    4.8603  -15.5570 C   0  0  0  0  0  0  0  0  0  0  0  0
   -8.8648    4.3741  -15.8445 C   0  0  0  0  0  0  0  0  0  0  0  0
   -9.2531    4.0115  -17.2014 C   0  0  0  0  0  0  0  0  0  0  0  0
   -8.3717    4.1837  -18.1970 C   0  0  0  0  0  0  0  0  0  0  0  0
   -7.1061    4.6729  -17.8978 N   0  0  0  0  0  0  0  0  0  0  0  0
   -6.0692    4.9589  -18.7460 C   0  0  0  0  0  0  0  0  0  0  0  0
   -5.0389    5.4057  -17.9458 C   0  0  0  0  0  0  0  0  0  0  0  0
   -3.6731    5.8552  -18.3629 C   0  0  0  0  0  0  0  0  0  0  0  0
   -3.2699    7.0735  -17.6571 N   0  0  0  0  0  0  0  0  0  0  0  0
   -1.9273    7.5121  -18.0147 C   0  0  0  0  0  0  0  0  0  0  0  0
   -1.8672    8.9209  -17.4426 C   0  0  0  0  0  0  0  0  0  0  0  0
   -3.3194    9.3783  -17.3464 C   0  0  0  0  0  0  0  0  0  0  0  0
   -4.1380    8.2216  -17.8984 C   0  0  0  0  0  0  0  0  0  0  0  0
   -5.4287    5.4004  -16.6229 N   0  0  0  0  0  0  0  0  0  0  0  0
   -6.6826    4.9984  -16.6126 C   0  0  0  0  0  0  0  0  0  0  0  0
   -8.1279    2.5711  -10.9337 C   0  0  0  0  0  0  0  0  0  0  0  0
   -7.9590    2.0363  -12.0115 O   0  0  0  0  0  0  0  0  0  0  0  0
   -8.2806    2.0212   -9.7000 N   0  0  0  0  0  0  0  0  0  0  0  0
   -8.5643    2.9470   -8.7528 C   0  0  0  0  0  0  0  0  0  0  0  0
   -8.9761    2.7836   -7.6233 O   0  0  0  0  0  0  0  0  0  0  0  0
  1  2  1  0
  2  3  2  0
  2  4  1  0
  4  5  2  0
  5  6  1  0
  6  7  1  0
  6  8  2  0
  8  9  1  0
  9 10  2  0
 10 11  1  0
 11 12  1  0
 12 13  2  0
 12 14  1  0
 14 15  2  0
 15 16  1  0
 16 17  2  0
 17 18  1  0
 18 19  1  0
 19 20  2  0
 20 21  1  0
 21 22  1  0
 22 23  1  0
 23 24  1  0
 24 25  1  0
 25 26  1  0
 20 27  1  0
 27 28  2  0
  9 29  1  0
 29 30  2  0
 29 31  1  0
 31 32  1  0
 32 33  2  0
 10  4  1  0
 28 14  1  0
 32  8  1  0
 28 18  1  0
 26 22  1  0
M  END
>  <name>  (58) 
P118401

>  <alias>  (58) 
None

>  <smina_score_min>  (58) 
-7.968

>  <exports>  (58) 
['/opt/xchem-fragalysis-2/maxwin/BulkDock/OUTPUTS/openbind_xx01zvns2b_c2_elabs_1LOUTNY.sdf', '/opt/xchem-fragalysis-2/maxwin/BulkDock/OUTPUTS/openbind_xx01zvns2b_c2_elabs_1LSYIIV.sdf', '/opt/xchem-fragalysis-2/maxwin/openbind-hippo/xx01zvns2b/cycle_02/gnina/openbind_xx01zvns2b_c2_elabs_scored_6.2plus_products.sdf']

>  <tags>  (58) 
syndirella_placed,openbind_xx01zvns2b_c2_elabs,openbind_xx01zvns2b_c2_elabs_scored_6.2plus,syndirella_product,openbind_xx01zvns2b_c2_elabs_scored,openbind_xx01zvns2b_c2_elabs_scored_top80percent,BulkDock Fragalysis export,openbind_xx01zvns2b_c2_elabs_scored_top80percent_despaghettified

>  <subsites>  (58) 
1 - Z4590/B/203/1

>  <smiles>  (58) 
CC(=O)c1cc(Br)c2c(c1NC(=O)c1cccn3cc(CN4CCCC4)nc13)C(=O)NC2=O

>  <HIPPO Pose ID>  (58) 
118401

>  <energy_score>  (58) 
-46.154543

>  <inchikey>  (58) 
VLPDURGIPRKPSS-UHFFFAOYSA-N

>  <gnina_score_min>  (58) 
6.34

>  <gnina_score>  (58) 
6.368

>  <ref_mols>  (58) 
Z3093a

>  <HIPPO Compound ID>  (58) 
182185

>  <distance_score>  (58) 
0.642564

>  <rmsd(smina/fragmenstein)>  (58) 
0.637

>  <ref_pdb>  (58) 
Z3093a

>  <inspiration_score>  (58) 
None

$$$$
P118403
     RDKit          3D

 33 37  0  0  0  0  0  0  0  0999 V2000
   -4.1713    1.0669  -11.0166 C   0  0  0  0  0  0  0  0  0  0  0  0
   -4.6292    2.4385  -10.7938 N   0  0  0  0  0  0  0  0  0  0  0  0
   -5.3599    2.5588   -9.5074 C   0  0  0  0  0  0  0  0  0  0  0  0
   -6.8079    1.9653   -9.4791 C   0  0  0  0  0  0  0  0  0  0  0  0
   -7.6301    2.5730  -10.5386 N   0  0  0  0  0  0  0  0  0  0  0  0
   -8.0628    3.8911  -10.3130 C   0  0  0  0  0  0  0  0  0  0  0  0
   -8.1855    4.4648   -9.0477 C   0  0  0  0  0  0  0  0  0  0  0  0
   -8.3569    5.8392   -8.9105 C   0  0  0  0  0  0  0  0  0  0  0  0
   -8.4125    6.3773   -7.6832 F   0  0  0  0  0  0  0  0  0  0  0  0
   -8.4406    6.6789  -10.0158 C   0  0  0  0  0  0  0  0  0  0  0  0
   -8.4393    6.1290  -11.2938 C   0  0  0  0  0  0  0  0  0  0  0  0
   -8.5012    7.0023  -12.5198 C   0  0  0  0  0  0  0  0  0  0  0  0
   -8.4174    6.2686  -13.7626 N   0  0  0  0  0  0  0  0  0  0  0  0
   -7.2408    5.4763  -14.3852 C   0  0  0  0  0  0  0  0  0  0  0  0
   -6.1858    5.2301  -13.9561 O   0  0  0  0  0  0  0  0  0  0  0  0
   -7.6584    5.0090  -15.7517 C   0  0  0  0  0  0  0  0  0  0  0  0
   -8.8483    4.4094  -15.9803 C   0  0  0  0  0  0  0  0  0  0  0  0
   -9.2612    4.0232  -17.3235 C   0  0  0  0  0  0  0  0  0  0  0  0
   -8.3934    4.1664  -18.3369 C   0  0  0  0  0  0  0  0  0  0  0  0
   -7.1406    4.7119  -18.0809 N   0  0  0  0  0  0  0  0  0  0  0  0
   -6.1022    4.9575  -18.9413 C   0  0  0  0  0  0  0  0  0  0  0  0
   -5.1066    5.5350  -18.1818 C   0  0  0  0  0  0  0  0  0  0  0  0
   -3.7410    5.9767  -18.6092 C   0  0  0  0  0  0  0  0  0  0  0  0
   -3.2903    7.1404  -17.8442 N   0  0  0  0  0  0  0  0  0  0  0  0
   -1.9176    7.5231  -18.1419 C   0  0  0  0  0  0  0  0  0  0  0  0
   -1.8028    8.9004  -17.5034 C   0  0  0  0  0  0  0  0  0  0  0  0
   -3.2346    9.4164  -17.3955 C   0  0  0  0  0  0  0  0  0  0  0  0
   -4.0916    8.3414  -18.0443 C   0  0  0  0  0  0  0  0  0  0  0  0
   -5.5321    5.6751  -16.8817 N   0  0  0  0  0  0  0  0  0  0  0  0
   -6.7368    5.1550  -16.8290 C   0  0  0  0  0  0  0  0  0  0  0  0
   -8.3411    4.7362  -11.3965 C   0  0  0  0  0  0  0  0  0  0  0  0
   -6.9612    2.2977  -11.8323 C   0  0  0  0  0  0  0  0  0  0  0  0
   -5.5272    2.8888  -11.8833 C   0  0  0  0  0  0  0  0  0  0  0  0
  1  2  1  0
  2  3  1  0
  3  4  1  0
  4  5  1  0
  5  6  1  0
  6  7  2  0
  7  8  1  0
  8  9  1  0
  8 10  2  0
 10 11  1  0
 11 12  1  0
 12 13  1  0
 13 14  1  0
 14 15  2  0
 14 16  1  0
 16 17  2  0
 17 18  1  0
 18 19  2  0
 19 20  1  0
 20 21  1  0
 21 22  2  0
 22 23  1  0
 23 24  1  0
 24 25  1  0
 25 26  1  0
 26 27  1  0
 27 28  1  0
 22 29  1  0
 29 30  2  0
 11 31  2  0
  5 32  1  0
 32 33  1  0
 33  2  1  0
 31  6  1  0
 30 16  1  0
 30 20  1  0
 28 24  1  0
M  END
>  <name>  (59) 
P118403

>  <alias>  (59) 
None

>  <smina_score_min>  (59) 
-7.157

>  <exports>  (59) 
['/opt/xchem-fragalysis-2/maxwin/BulkDock/OUTPUTS/openbind_xx01zvns2b_c2_elabs_1LOUTNY.sdf', '/opt/xchem-fragalysis-2/maxwin/BulkDock/OUTPUTS/openbind_xx01zvns2b_c2_elabs_1LSYIIV.sdf', '/opt/xchem-fragalysis-2/maxwin/openbind-hippo/xx01zvns2b/cycle_02/gnina/openbind_xx01zvns2b_c2_elabs_scored_6.2plus_products.sdf']

>  <tags>  (59) 
syndirella_placed,openbind_xx01zvns2b_c2_elabs,openbind_xx01zvns2b_c2_elabs_scored_6.2plus,syndirella_product,openbind_xx01zvns2b_c2_elabs_scored,openbind_xx01zvns2b_c2_elabs_scored_top80percent,BulkDock Fragalysis export,openbind_xx01zvns2b_c2_elabs_scored_top80percent_despaghettified

>  <subsites>  (59) 
1 - Z4590/B/203/1

>  <smiles>  (59) 
CN1CCN(c2cc(F)cc(CNC(=O)c3cccn4cc(CN5CCCC5)nc34)c2)CC1

>  <HIPPO Pose ID>  (59) 
118403

>  <energy_score>  (59) 
-26.270663

>  <inchikey>  (59) 
SSKFVQLXMJLUDE-UHFFFAOYSA-N

>  <gnina_score_min>  (59) 
6.394

>  <gnina_score>  (59) 
6.364

>  <ref_mols>  (59) 
Z3093a

>  <HIPPO Compound ID>  (59) 
182191

>  <distance_score>  (59) 
1.249627

>  <rmsd(smina/fragmenstein)>  (59) 
1.482

>  <ref_pdb>  (59) 
Z3093a

>  <inspiration_score>  (59) 
None

$$$$
P118404
     RDKit          3D

 33 38  0  0  0  0  0  0  0  0999 V2000
   -7.4365    6.8065  -14.4641 O   0  0  0  0  0  0  0  0  0  0  0  0
   -7.6002    5.6520  -14.4550 C   0  0  0  0  0  0  0  0  0  0  0  0
   -7.8388    4.6848  -13.2760 N   0  0  0  0  0  0  0  0  0  0  0  0
   -8.0139    4.9392  -11.9222 C   0  0  0  0  0  0  0  0  0  0  0  0
   -8.1387    6.2450  -11.4379 C   0  0  0  0  0  0  0  0  0  0  0  0
   -8.3200    6.4998  -10.0661 C   0  0  0  0  0  0  0  0  0  0  0  0
   -8.3535    5.4543   -9.1486 C   0  0  0  0  0  0  0  0  0  0  0  0
   -8.1934    4.1725   -9.6360 C   0  0  0  0  0  0  0  0  0  0  0  0
   -8.0399    3.9138  -11.0056 C   0  0  0  0  0  0  0  0  0  0  0  0
   -7.7529    2.4578  -11.1936 C   0  0  0  0  0  0  0  0  0  0  0  0
   -7.2987    2.0478   -9.8498 N   0  0  0  0  0  0  0  0  0  0  0  0
   -5.9018    1.9530   -9.8643 C   0  0  0  0  0  0  0  0  0  0  0  0
   -5.0561    2.9810   -9.4359 C   0  0  0  0  0  0  0  0  0  0  0  0
   -3.6719    2.8549   -9.5635 C   0  0  0  0  0  0  0  0  0  0  0  0
   -3.1474    1.7070  -10.1321 C   0  0  0  0  0  0  0  0  0  0  0  0
   -4.0357    0.7349  -10.5450 C   0  0  0  0  0  0  0  0  0  0  0  0
   -5.3771    0.8325  -10.4152 N   0  0  0  0  0  0  0  0  0  0  0  0
   -7.9820    2.9049   -8.8652 C   0  0  0  0  0  0  0  0  0  0  0  0
   -7.7101    4.8934  -15.7409 C   0  0  0  0  0  0  0  0  0  0  0  0
   -8.9057    4.3432  -16.0503 C   0  0  0  0  0  0  0  0  0  0  0  0
   -9.2312    3.9356  -17.4089 C   0  0  0  0  0  0  0  0  0  0  0  0
   -8.3215    4.1248  -18.3754 C   0  0  0  0  0  0  0  0  0  0  0  0
   -7.0856    4.6689  -18.0445 N   0  0  0  0  0  0  0  0  0  0  0  0
   -6.0232    4.9617  -18.8571 C   0  0  0  0  0  0  0  0  0  0  0  0
   -5.0341    5.4463  -18.0270 C   0  0  0  0  0  0  0  0  0  0  0  0
   -3.6567    5.8987  -18.4003 C   0  0  0  0  0  0  0  0  0  0  0  0
   -3.2665    7.1036  -17.6662 N   0  0  0  0  0  0  0  0  0  0  0  0
   -1.9116    7.5382  -17.9802 C   0  0  0  0  0  0  0  0  0  0  0  0
   -1.8586    8.9405  -17.3917 C   0  0  0  0  0  0  0  0  0  0  0  0
   -3.3105    9.4032  -17.3221 C   0  0  0  0  0  0  0  0  0  0  0  0
   -4.1201    8.2608  -17.9151 C   0  0  0  0  0  0  0  0  0  0  0  0
   -5.4808    5.4740  -16.7226 N   0  0  0  0  0  0  0  0  0  0  0  0
   -6.7221    5.0402  -16.7549 C   0  0  0  0  0  0  0  0  0  0  0  0
  1  2  2  0
  2  3  1  0
  3  4  1  0
  4  5  2  0
  5  6  1  0
  6  7  2  0
  7  8  1  0
  8  9  2  0
  9 10  1  0
 10 11  1  0
 11 12  1  0
 12 13  2  0
 13 14  1  0
 14 15  2  0
 15 16  1  0
 16 17  2  0
 11 18  1  0
  2 19  1  0
 19 20  2  0
 20 21  1  0
 21 22  2  0
 22 23  1  0
 23 24  1  0
 24 25  2  0
 25 26  1  0
 26 27  1  0
 27 28  1  0
 28 29  1  0
 29 30  1  0
 30 31  1  0
 25 32  1  0
 32 33  2  0
  9  4  1  0
 17 12  1  0
 33 19  1  0
 18  8  1  0
 33 23  1  0
 31 27  1  0
M  END
>  <name>  (60) 
P118404

>  <alias>  (60) 
None

>  <smina_score_min>  (60) 
-7.588

>  <exports>  (60) 
['/opt/xchem-fragalysis-2/maxwin/BulkDock/OUTPUTS/openbind_xx01zvns2b_c2_elabs_1LOUTNY.sdf', '/opt/xchem-fragalysis-2/maxwin/BulkDock/OUTPUTS/openbind_xx01zvns2b_c2_elabs_1LSYIIV.sdf', '/opt/xchem-fragalysis-2/maxwin/openbind-hippo/xx01zvns2b/cycle_02/gnina/openbind_xx01zvns2b_c2_elabs_scored_6.2plus_products.sdf']

>  <tags>  (60) 
syndirella_placed,openbind_xx01zvns2b_c2_elabs,openbind_xx01zvns2b_c2_elabs_scored_6.2plus,syndirella_product,openbind_xx01zvns2b_c2_elabs_scored,openbind_xx01zvns2b_c2_elabs_scored_top80percent,BulkDock Fragalysis export,openbind_xx01zvns2b_c2_elabs_scored_top80percent_despaghettified

>  <subsites>  (60) 
1 - Z4590/B/203/1

>  <smiles>  (60) 
O=C(Nc1cccc2c1CN(c1ccccn1)C2)c1cccn2cc(CN3CCCC3)nc12

>  <HIPPO Pose ID>  (60) 
118404

>  <energy_score>  (60) 
-25.229383

>  <inchikey>  (60) 
GPEMLECNEJYADC-UHFFFAOYSA-N

>  <gnina_score_min>  (60) 
6.386

>  <gnina_score>  (60) 
6.682

>  <ref_mols>  (60) 
Z3093a

>  <HIPPO Compound ID>  (60) 
182192

>  <distance_score>  (60) 
0.739761

>  <rmsd(smina/fragmenstein)>  (60) 
0.86

>  <ref_pdb>  (60) 
Z3093a

>  <inspiration_score>  (60) 
None

$$$$
P118407
     RDKit          3D

 33 37  0  0  0  0  0  0  0  0999 V2000
   -9.1101    5.3741   -5.5451 C   0  0  0  0  0  0  0  0  0  0  0  0
   -8.9747    5.1186   -6.9426 O   0  0  0  0  0  0  0  0  0  0  0  0
   -8.3951    6.1201   -7.6458 C   0  0  0  0  0  0  0  0  0  0  0  0
   -8.0059    7.1846   -7.1946 O   0  0  0  0  0  0  0  0  0  0  0  0
   -8.3521    5.7643   -9.0853 C   0  0  0  0  0  0  0  0  0  0  0  0
   -8.2993    6.7966  -10.0344 C   0  0  0  0  0  0  0  0  0  0  0  0
   -8.2091    6.5194  -11.4148 C   0  0  0  0  0  0  0  0  0  0  0  0
   -8.1915    5.2048  -11.8754 C   0  0  0  0  0  0  0  0  0  0  0  0
   -8.0927    4.8963  -13.2257 N   0  0  0  0  0  0  0  0  0  0  0  0
   -7.6364    5.7596  -14.4202 C   0  0  0  0  0  0  0  0  0  0  0  0
   -7.3451    6.8877  -14.4696 O   0  0  0  0  0  0  0  0  0  0  0  0
   -7.7063    4.9390  -15.6807 C   0  0  0  0  0  0  0  0  0  0  0  0
   -8.8949    4.3739  -15.9970 C   0  0  0  0  0  0  0  0  0  0  0  0
   -9.2105    3.9453  -17.3517 C   0  0  0  0  0  0  0  0  0  0  0  0
   -8.2990    4.1309  -18.3159 C   0  0  0  0  0  0  0  0  0  0  0  0
   -7.0684    4.6829  -17.9827 N   0  0  0  0  0  0  0  0  0  0  0  0
   -6.0064    4.9712  -18.7970 C   0  0  0  0  0  0  0  0  0  0  0  0
   -5.0187    5.4609  -17.9691 C   0  0  0  0  0  0  0  0  0  0  0  0
   -3.6402    5.9055  -18.3463 C   0  0  0  0  0  0  0  0  0  0  0  0
   -3.2515    7.1237  -17.6338 N   0  0  0  0  0  0  0  0  0  0  0  0
   -1.8991    7.5569  -17.9600 C   0  0  0  0  0  0  0  0  0  0  0  0
   -1.8485    8.9685  -17.3944 C   0  0  0  0  0  0  0  0  0  0  0  0
   -3.3014    9.4285  -17.3292 C   0  0  0  0  0  0  0  0  0  0  0  0
   -4.1096    8.2739  -17.9000 C   0  0  0  0  0  0  0  0  0  0  0  0
   -5.4687    5.5041  -16.6656 N   0  0  0  0  0  0  0  0  0  0  0  0
   -6.7111    5.0702  -16.6943 C   0  0  0  0  0  0  0  0  0  0  0  0
   -8.2520    4.2097  -10.9247 C   0  0  0  0  0  0  0  0  0  0  0  0
   -8.2960    4.4605   -9.5507 C   0  0  0  0  0  0  0  0  0  0  0  0
   -8.0851    3.1858   -8.8078 C   0  0  0  0  0  0  0  0  0  0  0  0
   -7.7020    2.2878   -9.8758 N   0  0  0  0  0  0  0  0  0  0  0  0
   -6.6786    1.3004   -9.6909 C   0  0  0  0  0  0  0  0  0  0  0  0
   -7.9331    2.8050  -11.1260 C   0  0  0  0  0  0  0  0  0  0  0  0
   -7.7746    2.2892  -12.2146 O   0  0  0  0  0  0  0  0  0  0  0  0
  1  2  1  0
  2  3  1  0
  3  4  2  0
  3  5  1  0
  5  6  2  0
  6  7  1  0
  7  8  2  0
  8  9  1  0
  9 10  1  0
 10 11  2  0
 10 12  1  0
 12 13  2  0
 13 14  1  0
 14 15  2  0
 15 16  1  0
 16 17  1  0
 17 18  2  0
 18 19  1  0
 19 20  1  0
 20 21  1  0
 21 22  1  0
 22 23  1  0
 23 24  1  0
 18 25  1  0
 25 26  2  0
  8 27  1  0
 27 28  2  0
 28 29  1  0
 29 30  1  0
 30 31  1  0
 30 32  1  0
 32 33  2  0
 28  5  1  0
 26 12  1  0
 32 27  1  0
 26 16  1  0
 24 20  1  0
M  END
>  <name>  (61) 
P118407

>  <alias>  (61) 
None

>  <smina_score_min>  (61) 
-6.715

>  <exports>  (61) 
['/opt/xchem-fragalysis-2/maxwin/BulkDock/OUTPUTS/openbind_xx01zvns2b_c2_elabs_1LOUTNY.sdf', '/opt/xchem-fragalysis-2/maxwin/BulkDock/OUTPUTS/openbind_xx01zvns2b_c2_elabs_1LSYIIV.sdf', '/opt/xchem-fragalysis-2/maxwin/openbind-hippo/xx01zvns2b/cycle_02/gnina/openbind_xx01zvns2b_c2_elabs_scored_6.2plus_products.sdf']

>  <tags>  (61) 
syndirella_placed,openbind_xx01zvns2b_c2_elabs,openbind_xx01zvns2b_c2_elabs_scored_6.2plus,syndirella_product,openbind_xx01zvns2b_c2_elabs_scored,openbind_xx01zvns2b_c2_elabs_scored_top80percent,BulkDock Fragalysis export,openbind_xx01zvns2b_c2_elabs_scored_top80percent_despaghettified

>  <subsites>  (61) 
1 - Z4590/B/203/1

>  <smiles>  (61) 
COC(=O)c1ccc(NC(=O)c2cccn3cc(CN4CCCC4)nc23)c2c1CN(C)C2=O

>  <HIPPO Pose ID>  (61) 
118407

>  <energy_score>  (61) 
-37.451903

>  <inchikey>  (61) 
RPCCRSBLMOPPSR-UHFFFAOYSA-N

>  <gnina_score_min>  (61) 
6.205

>  <gnina_score>  (61) 
6.212

>  <ref_mols>  (61) 
Z3093a

>  <HIPPO Compound ID>  (61) 
182197

>  <distance_score>  (61) 
0.796086

>  <rmsd(smina/fragmenstein)>  (61) 
0.967

>  <ref_pdb>  (61) 
Z3093a

>  <inspiration_score>  (61) 
None

$$$$
P118413
     RDKit          3D

 33 37  0  0  0  0  0  0  0  0999 V2000
   -8.7484    5.0481   -4.0955 C   0  0  0  0  0  0  0  0  0  0  0  0
   -9.6854    3.9584   -3.6130 C   0  0  0  0  0  0  0  0  0  0  0  0
  -10.7142    3.7419   -4.5733 O   0  0  0  0  0  0  0  0  0  0  0  0
  -10.7440    2.4323   -5.1540 C   0  0  0  0  0  0  0  0  0  0  0  0
   -9.5771    2.1870   -6.0820 C   0  0  0  0  0  0  0  0  0  0  0  0
   -9.6017    3.1752   -7.2223 C   0  0  0  0  0  0  0  0  0  0  0  0
   -8.2677    3.1804   -7.7973 N   0  0  0  0  0  0  0  0  0  0  0  0
   -7.7726    4.5449   -8.0423 C   0  0  0  0  0  0  0  0  0  0  0  0
   -7.9349    4.7629   -9.4997 C   0  0  0  0  0  0  0  0  0  0  0  0
   -7.7739    5.9239  -10.2222 C   0  0  0  0  0  0  0  0  0  0  0  0
   -7.8497    5.8252  -11.6054 C   0  0  0  0  0  0  0  0  0  0  0  0
   -8.0867    4.5839  -12.2232 C   0  0  0  0  0  0  0  0  0  0  0  0
   -8.0679    4.4765  -13.5988 N   0  0  0  0  0  0  0  0  0  0  0  0
   -7.6616    5.5008  -14.6782 C   0  0  0  0  0  0  0  0  0  0  0  0
   -7.3525    6.6205  -14.5791 O   0  0  0  0  0  0  0  0  0  0  0  0
   -7.8079    4.8434  -16.0044 C   0  0  0  0  0  0  0  0  0  0  0  0
   -8.9904    4.2869  -16.3434 C   0  0  0  0  0  0  0  0  0  0  0  0
   -9.2666    3.8652  -17.7027 C   0  0  0  0  0  0  0  0  0  0  0  0
   -8.3241    4.0532  -18.6374 C   0  0  0  0  0  0  0  0  0  0  0  0
   -7.1055    4.6183  -18.2748 N   0  0  0  0  0  0  0  0  0  0  0  0
   -6.0167    4.9205  -19.0480 C   0  0  0  0  0  0  0  0  0  0  0  0
   -5.0597    5.4150  -18.1865 C   0  0  0  0  0  0  0  0  0  0  0  0
   -3.6736    5.8792  -18.5120 C   0  0  0  0  0  0  0  0  0  0  0  0
   -3.2910    7.0533  -17.7242 N   0  0  0  0  0  0  0  0  0  0  0  0
   -4.1353    8.2235  -17.9444 C   0  0  0  0  0  0  0  0  0  0  0  0
   -3.3301    9.3414  -17.3001 C   0  0  0  0  0  0  0  0  0  0  0  0
   -1.8795    8.8736  -17.3604 C   0  0  0  0  0  0  0  0  0  0  0  0
   -1.9291    7.4934  -17.9994 C   0  0  0  0  0  0  0  0  0  0  0  0
   -5.5510    5.4361  -16.9006 N   0  0  0  0  0  0  0  0  0  0  0  0
   -6.7882    4.9972  -16.9796 C   0  0  0  0  0  0  0  0  0  0  0  0
   -8.2993    3.4303  -11.4787 C   0  0  0  0  0  0  0  0  0  0  0  0
   -8.2046    3.5401  -10.1132 C   0  0  0  0  0  0  0  0  0  0  0  0
   -8.2575    2.4598   -9.0889 C   0  0  0  0  0  0  0  0  0  0  0  0
  1  2  1  0
  2  3  1  0
  3  4  1  0
  4  5  1  0
  5  6  1  0
  6  7  1  0
  7  8  1  0
  8  9  1  0
  9 10  2  0
 10 11  1  0
 11 12  2  0
 12 13  1  0
 13 14  1  0
 14 15  2  0
 14 16  1  0
 16 17  2  0
 17 18  1  0
 18 19  2  0
 19 20  1  0
 20 21  1  0
 21 22  2  0
 22 23  1  0
 23 24  1  0
 24 25  1  0
 25 26  1  0
 26 27  1  0
 27 28  1  0
 22 29  1  0
 29 30  2  0
 12 31  1  0
 31 32  2  0
 32 33  1  0
 33  7  1  0
 32  9  1  0
 30 16  1  0
 30 20  1  0
 28 24  1  0
M  END
>  <name>  (62) 
P118413

>  <alias>  (62) 
None

>  <smina_score_min>  (62) 
-7.12

>  <exports>  (62) 
['/opt/xchem-fragalysis-2/maxwin/BulkDock/OUTPUTS/openbind_xx01zvns2b_c2_elabs_1LOUTNY.sdf', '/opt/xchem-fragalysis-2/maxwin/BulkDock/OUTPUTS/openbind_xx01zvns2b_c2_elabs_1LSYIIV.sdf', '/opt/xchem-fragalysis-2/maxwin/openbind-hippo/xx01zvns2b/cycle_02/gnina/openbind_xx01zvns2b_c2_elabs_scored_6.2plus_products.sdf']

>  <tags>  (62) 
syndirella_placed,openbind_xx01zvns2b_c2_elabs,openbind_xx01zvns2b_c2_elabs_scored_6.2plus,syndirella_product,openbind_xx01zvns2b_c2_elabs_scored,openbind_xx01zvns2b_c2_elabs_scored_top80percent,BulkDock Fragalysis export,openbind_xx01zvns2b_c2_elabs_scored_top80percent_despaghettified

>  <subsites>  (62) 
1 - Z4590/B/203/1

>  <smiles>  (62) 
CCOCCCN1Cc2ccc(NC(=O)c3cccn4cc(CN5CCCC5)nc34)cc2C1

>  <HIPPO Pose ID>  (62) 
118413

>  <energy_score>  (62) 
-31.538444

>  <inchikey>  (62) 
WFVXVVSRKWPGLC-UHFFFAOYSA-N

>  <gnina_score_min>  (62) 
6.232

>  <gnina_score>  (62) 
6.307

>  <ref_mols>  (62) 
Z3093a

>  <HIPPO Compound ID>  (62) 
182207

>  <distance_score>  (62) 
0.647011

>  <rmsd(smina/fragmenstein)>  (62) 
0.492

>  <ref_pdb>  (62) 
Z3093a

>  <inspiration_score>  (62) 
None

$$$$
P118416
     RDKit          3D

 33 37  0  0  0  0  0  0  0  0999 V2000
   -6.1698    3.1915  -11.8497 C   0  0  0  0  0  0  0  0  0  0  0  0
   -7.6456    3.4543  -12.0872 C   0  0  2  0  0  0  0  0  0  0  0  0
   -7.8944    3.8354  -13.4478 N   0  0  0  0  0  0  0  0  0  0  0  0
   -7.4035    5.0601  -14.2533 C   0  0  0  0  0  0  0  0  0  0  0  0
   -6.7849    5.9883  -13.9148 O   0  0  0  0  0  0  0  0  0  0  0  0
   -7.7833    4.8210  -15.6943 C   0  0  0  0  0  0  0  0  0  0  0  0
   -9.0163    4.3864  -16.0363 C   0  0  0  0  0  0  0  0  0  0  0  0
   -9.3872    4.1049  -17.4132 C   0  0  0  0  0  0  0  0  0  0  0  0
   -8.4640    4.2627  -18.3720 C   0  0  0  0  0  0  0  0  0  0  0  0
   -7.1973    4.7215  -18.0256 N   0  0  0  0  0  0  0  0  0  0  0  0
   -6.1230    4.9868  -18.8332 C   0  0  0  0  0  0  0  0  0  0  0  0
   -5.1163    5.4211  -17.9975 C   0  0  0  0  0  0  0  0  0  0  0  0
   -3.7259    5.8409  -18.3637 C   0  0  0  0  0  0  0  0  0  0  0  0
   -3.3289    7.0616  -17.6597 N   0  0  0  0  0  0  0  0  0  0  0  0
   -4.1540    8.2260  -17.9602 C   0  0  0  0  0  0  0  0  0  0  0  0
   -3.3372    9.3675  -17.3756 C   0  0  0  0  0  0  0  0  0  0  0  0
   -1.8915    8.8821  -17.4140 C   0  0  0  0  0  0  0  0  0  0  0  0
   -1.9589    7.4613  -17.9557 C   0  0  0  0  0  0  0  0  0  0  0  0
   -5.5556    5.4207  -16.6914 N   0  0  0  0  0  0  0  0  0  0  0  0
   -6.8098    5.0209  -16.7225 C   0  0  0  0  0  0  0  0  0  0  0  0
   -8.1384    4.3059  -10.9526 C   0  0  0  0  0  0  0  0  0  0  0  0
   -7.9724    5.6822  -10.8574 C   0  0  0  0  0  0  0  0  0  0  0  0
   -8.1130    6.3019   -9.6210 C   0  0  0  0  0  0  0  0  0  0  0  0
   -8.4151    5.5550   -8.4802 C   0  0  0  0  0  0  0  0  0  0  0  0
   -8.6861    4.1945   -8.5599 C   0  0  0  0  0  0  0  0  0  0  0  0
   -8.9075    3.3680   -7.4070 N   0  0  0  0  0  0  0  0  0  0  0  0
   -9.6213    2.0833   -7.6134 C   0  0  0  0  0  0  0  0  0  0  0  0
   -9.9254    1.5408   -6.2384 C   0  0  0  0  0  0  0  0  0  0  0  0
  -10.3708    2.7024   -5.3880 C   0  0  0  0  0  0  0  0  0  0  0  0
   -9.3321    4.0523   -5.8955 S   0  0  0  0  0  0  0  0  0  0  0  0
  -10.1905    5.2084   -6.0646 O   0  0  0  0  0  0  0  0  0  0  0  0
   -8.1475    4.1203   -5.0637 O   0  0  0  0  0  0  0  0  0  0  0  0
   -8.5217    3.5892   -9.8017 C   0  0  0  0  0  0  0  0  0  0  0  0
  2  1  1  6
  2  3  1  0
  3  4  1  0
  4  5  2  0
  4  6  1  0
  6  7  2  0
  7  8  1  0
  8  9  2  0
  9 10  1  0
 10 11  1  0
 11 12  2  0
 12 13  1  0
 13 14  1  0
 14 15  1  0
 15 16  1  0
 16 17  1  0
 17 18  1  0
 12 19  1  0
 19 20  2  0
  2 21  1  0
 21 22  2  0
 22 23  1  0
 23 24  2  0
 24 25  1  0
 25 26  1  0
 26 27  1  0
 27 28  1  0
 28 29  1  0
 29 30  1  0
 30 31  2  0
 30 32  2  0
 25 33  2  0
 20  6  1  0
 33 21  1  0
 20 10  1  0
 30 26  1  0
 18 14  1  0
M  END
>  <name>  (63) 
P118416

>  <alias>  (63) 
None

>  <smina_score_min>  (63) 
-8.178

>  <exports>  (63) 
['/opt/xchem-fragalysis-2/maxwin/BulkDock/OUTPUTS/openbind_xx01zvns2b_c2_elabs_1LOUTNY.sdf', '/opt/xchem-fragalysis-2/maxwin/BulkDock/OUTPUTS/openbind_xx01zvns2b_c2_elabs_1LSYIIV.sdf', '/opt/xchem-fragalysis-2/maxwin/openbind-hippo/xx01zvns2b/cycle_02/gnina/openbind_xx01zvns2b_c2_elabs_scored_6.2plus_products.sdf']

>  <tags>  (63) 
syndirella_placed,openbind_xx01zvns2b_c2_elabs,openbind_xx01zvns2b_c2_elabs_scored_6.2plus,syndirella_product,openbind_xx01zvns2b_c2_elabs_scored,openbind_xx01zvns2b_c2_elabs_scored_top80percent,BulkDock Fragalysis export,openbind_xx01zvns2b_c2_elabs_scored_top80percent_despaghettified

>  <subsites>  (63) 
1 - Z4590/B/203/1

>  <smiles>  (63) 
C[C@H](NC(=O)c1cccn2cc(CN3CCCC3)nc12)c1cccc(N2CCCS2(=O)=O)c1

>  <HIPPO Pose ID>  (63) 
118416

>  <energy_score>  (63) 
-41.849124

>  <inchikey>  (63) 
FNSQXMHARHMFFU-SFHVURJKSA-N

>  <gnina_score_min>  (63) 
6.294

>  <gnina_score>  (63) 
6.309

>  <ref_mols>  (63) 
Z3093a

>  <HIPPO Compound ID>  (63) 
182210

>  <distance_score>  (63) 
1.080313

>  <rmsd(smina/fragmenstein)>  (63) 
0.346

>  <ref_pdb>  (63) 
Z3093a

>  <inspiration_score>  (63) 
None

$$$$
P118421
     RDKit          3D

 33 37  0  0  0  0  0  0  0  0999 V2000
   -8.1626    5.0907   -4.2576 C   0  0  0  0  0  0  0  0  0  0  0  0
   -8.4468    3.8159   -5.0423 C   0  0  2  0  0  0  0  0  0  0  0  0
   -8.6061    4.1134   -6.5428 C   0  0  0  0  0  0  0  0  0  0  0  0
   -8.7165    2.9090   -7.3503 N   0  0  0  0  0  0  0  0  0  0  0  0
   -9.1593    2.9560   -8.7449 C   0  0  0  0  0  0  0  0  0  0  0  0
   -8.6038    4.0345   -9.6761 C   0  0  0  0  0  0  0  0  0  0  0  0
   -8.4788    5.3796   -9.2917 C   0  0  0  0  0  0  0  0  0  0  0  0
   -8.0372    6.3649  -10.1636 C   0  0  0  0  0  0  0  0  0  0  0  0
   -7.7792    6.0378  -11.4799 C   0  0  0  0  0  0  0  0  0  0  0  0
   -7.9702    4.7332  -11.9341 C   0  0  0  0  0  0  0  0  0  0  0  0
   -7.8354    4.4894  -13.2986 N   0  0  0  0  0  0  0  0  0  0  0  0
   -7.4858    5.4539  -14.4660 C   0  0  0  0  0  0  0  0  0  0  0  0
   -7.1821    6.5837  -14.4507 O   0  0  0  0  0  0  0  0  0  0  0  0
   -7.6895    4.7641  -15.7748 C   0  0  0  0  0  0  0  0  0  0  0  0
   -8.9092    4.2690  -16.0773 C   0  0  0  0  0  0  0  0  0  0  0  0
   -9.2710    3.9214  -17.4437 C   0  0  0  0  0  0  0  0  0  0  0  0
   -8.3743    4.1181  -18.4216 C   0  0  0  0  0  0  0  0  0  0  0  0
   -7.1187    4.6216  -18.1000 N   0  0  0  0  0  0  0  0  0  0  0  0
   -6.0658    4.9282  -18.9211 C   0  0  0  0  0  0  0  0  0  0  0  0
   -5.0571    5.3791  -18.0954 C   0  0  0  0  0  0  0  0  0  0  0  0
   -3.6871    5.8480  -18.4772 C   0  0  0  0  0  0  0  0  0  0  0  0
   -3.2897    7.0349  -17.7165 N   0  0  0  0  0  0  0  0  0  0  0  0
   -1.9416    7.4843  -18.0395 C   0  0  0  0  0  0  0  0  0  0  0  0
   -1.8846    8.8694  -17.4118 C   0  0  0  0  0  0  0  0  0  0  0  0
   -3.3364    9.3277  -17.3163 C   0  0  0  0  0  0  0  0  0  0  0  0
   -4.1518    8.1948  -17.9205 C   0  0  0  0  0  0  0  0  0  0  0  0
   -5.4738    5.3500  -16.7828 N   0  0  0  0  0  0  0  0  0  0  0  0
   -6.7217    4.9330  -16.8066 C   0  0  0  0  0  0  0  0  0  0  0  0
   -8.3573    3.7289  -11.0354 C   0  0  0  0  0  0  0  0  0  0  0  0
   -9.3121    1.8022   -6.5871 C   0  0  0  0  0  0  0  0  0  0  0  0
  -10.1322    2.1602   -5.3142 C   0  0  2  0  0  0  0  0  0  0  0  0
  -11.5883    2.4033   -5.5827 C   0  0  0  0  0  0  0  0  0  0  0  0
   -9.6700    3.2815   -4.5416 O   0  0  0  0  0  0  0  0  0  0  0  0
  2  1  1  1
  2  3  1  0
  3  4  1  0
  4  5  1  0
  5  6  1  0
  6  7  2  0
  7  8  1  0
  8  9  2  0
  9 10  1  0
 10 11  1  0
 11 12  1  0
 12 13  2  0
 12 14  1  0
 14 15  2  0
 15 16  1  0
 16 17  2  0
 17 18  1  0
 18 19  1  0
 19 20  2  0
 20 21  1  0
 21 22  1  0
 22 23  1  0
 23 24  1  0
 24 25  1  0
 25 26  1  0
 20 27  1  0
 27 28  2  0
 10 29  2  0
  4 30  1  0
 30 31  1  0
 31 32  1  6
 31 33  1  0
 33  2  1  0
 29  6  1  0
 28 14  1  0
 28 18  1  0
 26 22  1  0
M  END
>  <name>  (64) 
P118421

>  <alias>  (64) 
None

>  <smina_score_min>  (64) 
-7.466

>  <exports>  (64) 
['/opt/xchem-fragalysis-2/maxwin/BulkDock/OUTPUTS/openbind_xx01zvns2b_c2_elabs_1LOUTNY.sdf', '/opt/xchem-fragalysis-2/maxwin/BulkDock/OUTPUTS/openbind_xx01zvns2b_c2_elabs_1LSYIIV.sdf', '/opt/xchem-fragalysis-2/maxwin/openbind-hippo/xx01zvns2b/cycle_02/gnina/openbind_xx01zvns2b_c2_elabs_scored_6.2plus_products.sdf']

>  <tags>  (64) 
syndirella_placed,openbind_xx01zvns2b_c2_elabs,openbind_xx01zvns2b_c2_elabs_scored_6.2plus,syndirella_product,openbind_xx01zvns2b_c2_elabs_scored,openbind_xx01zvns2b_c2_elabs_scored_top80percent,BulkDock Fragalysis export,openbind_xx01zvns2b_c2_elabs_scored_top80percent_despaghettified

>  <subsites>  (64) 
1 - Z4590/B/203/1

>  <smiles>  (64) 
C[C@@H]1CN(Cc2cccc(NC(=O)c3cccn4cc(CN5CCCC5)nc34)c2)C[C@H](C)O1

>  <HIPPO Pose ID>  (64) 
118421

>  <energy_score>  (64) 
-26.656282

>  <inchikey>  (64) 
ACKWOPQSNYINSB-BGYRXZFFSA-N

>  <gnina_score_min>  (64) 
6.218

>  <gnina_score>  (64) 
6.053

>  <ref_mols>  (64) 
Z3093a

>  <HIPPO Compound ID>  (64) 
182213

>  <distance_score>  (64) 
0.567417

>  <rmsd(smina/fragmenstein)>  (64) 
0.366

>  <ref_pdb>  (64) 
Z3093a

>  <inspiration_score>  (64) 
None

$$$$
P118439
     RDKit          3D

 35 40  0  0  0  0  0  0  0  0999 V2000
  -10.3006    4.0641   -3.2409 O   0  0  0  0  0  0  0  0  0  0  0  0
  -10.0411    3.5588   -4.3225 C   0  0  0  0  0  0  0  0  0  0  0  0
   -8.8556    3.9187   -5.1408 C   0  0  0  0  0  0  0  0  0  0  0  0
   -8.8193    2.8542   -6.2355 C   0  0  2  0  0  0  0  0  0  0  0  0
   -8.6580    3.3937   -7.5764 N   0  0  0  0  0  0  0  0  0  0  0  0
   -8.9267    2.6016   -8.7801 C   0  0  0  0  0  0  0  0  0  0  0  0
   -8.4404    3.5122   -9.8630 C   0  0  0  0  0  0  0  0  0  0  0  0
   -8.5099    3.3902  -11.2398 C   0  0  0  0  0  0  0  0  0  0  0  0
   -8.0010    4.4389  -12.0179 C   0  0  0  0  0  0  0  0  0  0  0  0
   -8.0325    4.3499  -13.4035 N   0  0  0  0  0  0  0  0  0  0  0  0
   -7.6447    5.3902  -14.4898 C   0  0  0  0  0  0  0  0  0  0  0  0
   -7.3130    6.5065  -14.3855 O   0  0  0  0  0  0  0  0  0  0  0  0
   -7.8224    4.7781  -15.8415 C   0  0  0  0  0  0  0  0  0  0  0  0
   -9.0183    4.2604  -16.1930 C   0  0  0  0  0  0  0  0  0  0  0  0
   -9.3218    3.9040  -17.5679 C   0  0  0  0  0  0  0  0  0  0  0  0
   -8.3874    4.1047  -18.5078 C   0  0  0  0  0  0  0  0  0  0  0  0
   -7.1539    4.6300  -18.1394 N   0  0  0  0  0  0  0  0  0  0  0  0
   -6.0711    4.9354  -18.9201 C   0  0  0  0  0  0  0  0  0  0  0  0
   -5.0972    5.3958  -18.0589 C   0  0  0  0  0  0  0  0  0  0  0  0
   -3.7082    5.8457  -18.3942 C   0  0  0  0  0  0  0  0  0  0  0  0
   -3.3301    7.0490  -17.6502 N   0  0  0  0  0  0  0  0  0  0  0  0
   -4.1707    8.2105  -17.9229 C   0  0  0  0  0  0  0  0  0  0  0  0
   -3.3684    9.3509  -17.3158 C   0  0  0  0  0  0  0  0  0  0  0  0
   -1.9174    8.8820  -17.3543 C   0  0  0  0  0  0  0  0  0  0  0  0
   -1.9655    7.4763  -17.9352 C   0  0  0  0  0  0  0  0  0  0  0  0
   -5.5708    5.3877  -16.7642 N   0  0  0  0  0  0  0  0  0  0  0  0
   -6.8142    4.9599  -16.8335 C   0  0  0  0  0  0  0  0  0  0  0  0
   -7.4411    5.5832  -11.4151 C   0  0  0  0  0  0  0  0  0  0  0  0
   -7.3424    5.6853  -10.0334 C   0  0  0  0  0  0  0  0  0  0  0  0
   -7.8378    4.6328   -9.2981 C   0  0  0  0  0  0  0  0  0  0  0  0
   -7.8485    4.4814   -7.8515 C   0  0  0  0  0  0  0  0  0  0  0  0
   -7.2494    5.2136   -7.0855 O   0  0  0  0  0  0  0  0  0  0  0  0
  -10.1165    2.1002   -6.0371 C   0  0  0  0  0  0  0  0  0  0  0  0
  -10.5164    1.1613   -6.7044 O   0  0  0  0  0  0  0  0  0  0  0  0
  -10.7758    2.6304   -4.9799 N   0  0  0  0  0  0  0  0  0  0  0  0
  1  2  2  0
  2  3  1  0
  3  4  1  0
  4  5  1  6
  5  6  1  0
  6  7  1  0
  7  8  2  0
  8  9  1  0
  9 10  1  0
 10 11  1  0
 11 12  2  0
 11 13  1  0
 13 14  2  0
 14 15  1  0
 15 16  2  0
 16 17  1  0
 17 18  1  0
 18 19  2  0
 19 20  1  0
 20 21  1  0
 21 22  1  0
 22 23  1  0
 23 24  1  0
 24 25  1  0
 19 26  1  0
 26 27  2  0
  9 28  2  0
 28 29  1  0
 29 30  2  0
 30 31  1  0
 31 32  2  0
  4 33  1  0
 33 34  2  0
 33 35  1  0
 35  2  1  0
 31  5  1  0
 30  7  1  0
 27 13  1  0
 27 17  1  0
 25 21  1  0
M  END
>  <name>  (65) 
P118439

>  <alias>  (65) 
None

>  <smina_score_min>  (65) 
-9.134

>  <exports>  (65) 
['/opt/xchem-fragalysis-2/maxwin/BulkDock/OUTPUTS/openbind_xx01zvns2b_c2_elabs_1LOUTNY.sdf', '/opt/xchem-fragalysis-2/maxwin/BulkDock/OUTPUTS/openbind_xx01zvns2b_c2_elabs_1LSYIIV.sdf', '/opt/xchem-fragalysis-2/maxwin/openbind-hippo/xx01zvns2b/cycle_02/gnina/openbind_xx01zvns2b_c2_elabs_scored_6.2plus_products.sdf']

>  <tags>  (65) 
syndirella_placed,openbind_xx01zvns2b_c2_elabs,openbind_xx01zvns2b_c2_elabs_scored_6.2plus,syndirella_product,openbind_xx01zvns2b_c2_elabs_scored,openbind_xx01zvns2b_c2_elabs_scored_top80percent,BulkDock Fragalysis export,openbind_xx01zvns2b_c2_elabs_scored_top80percent_despaghettified

>  <subsites>  (65) 
1 - Z4590/B/203/1

>  <smiles>  (65) 
O=C1C[C@H](N2Cc3cc(NC(=O)c4cccn5cc(CN6CCCC6)nc45)ccc3C2=O)C(=O)N1

>  <HIPPO Pose ID>  (65) 
118439

>  <energy_score>  (65) 
-49.616759

>  <inchikey>  (65) 
UEQVKSVWALOOLZ-FQEVSTJZSA-N

>  <gnina_score_min>  (65) 
6.319

>  <gnina_score>  (65) 
6.231

>  <ref_mols>  (65) 
Z3093a

>  <HIPPO Compound ID>  (65) 
182246

>  <distance_score>  (65) 
0.587621

>  <rmsd(smina/fragmenstein)>  (65) 
0.754

>  <ref_pdb>  (65) 
Z3093a

>  <inspiration_score>  (65) 
None

$$$$
P118445
     RDKit          3D

 35 39  0  0  0  0  0  0  0  0999 V2000
   -3.8298    2.7847  -11.7150 C   0  0  0  0  0  0  0  0  0  0  0  0
   -3.6725    2.0453  -10.3806 C   0  0  0  0  0  0  0  0  0  0  0  0
   -2.9541    0.7200  -10.6332 C   0  0  0  0  0  0  0  0  0  0  0  0
   -2.8285    2.8450   -9.3766 C   0  0  0  0  0  0  0  0  0  0  0  0
   -4.9761    1.6673   -9.8617 O   0  0  0  0  0  0  0  0  0  0  0  0
   -5.8320    2.6466   -9.4542 C   0  0  0  0  0  0  0  0  0  0  0  0
   -5.5162    3.7555   -9.3147 O   0  0  0  0  0  0  0  0  0  0  0  0
   -7.1995    1.9824   -9.3196 N   0  0  0  0  0  0  0  0  0  0  0  0
   -8.4960    2.5538   -9.0763 C   0  0  1  0  0  0  0  0  0  0  0  0
   -8.6963    3.2595   -7.7267 C   0  0  0  0  0  0  0  0  0  0  0  0
   -8.2916    4.7320   -7.9038 C   0  0  0  0  0  0  0  0  0  0  0  0
   -8.4424    4.9257   -9.3805 C   0  0  0  0  0  0  0  0  0  0  0  0
   -8.2335    6.0792  -10.1130 C   0  0  0  0  0  0  0  0  0  0  0  0
   -8.1536    5.9716  -11.5063 C   0  0  0  0  0  0  0  0  0  0  0  0
   -8.3072    4.7278  -12.1392 C   0  0  0  0  0  0  0  0  0  0  0  0
   -8.1029    4.5594  -13.4975 N   0  0  0  0  0  0  0  0  0  0  0  0
   -7.6670    5.5715  -14.5792 C   0  0  0  0  0  0  0  0  0  0  0  0
   -7.3377    6.6861  -14.4826 O   0  0  0  0  0  0  0  0  0  0  0  0
   -7.7990    4.8985  -15.9090 C   0  0  0  0  0  0  0  0  0  0  0  0
   -8.9796    4.3350  -16.2489 C   0  0  0  0  0  0  0  0  0  0  0  0
   -9.2616    3.9076  -17.6069 C   0  0  0  0  0  0  0  0  0  0  0  0
   -8.3221    4.0901  -18.5450 C   0  0  0  0  0  0  0  0  0  0  0  0
   -7.1025    4.6538  -18.1855 N   0  0  0  0  0  0  0  0  0  0  0  0
   -6.0167    4.9441  -18.9675 C   0  0  0  0  0  0  0  0  0  0  0  0
   -5.0549    5.4422  -18.1140 C   0  0  0  0  0  0  0  0  0  0  0  0
   -3.6679    5.8950  -18.4507 C   0  0  0  0  0  0  0  0  0  0  0  0
   -3.2815    7.0835  -17.6889 N   0  0  0  0  0  0  0  0  0  0  0  0
   -1.9202    7.5171  -17.9748 C   0  0  0  0  0  0  0  0  0  0  0  0
   -1.8677    8.9081  -17.3602 C   0  0  0  0  0  0  0  0  0  0  0  0
   -3.3179    9.3772  -17.3015 C   0  0  0  0  0  0  0  0  0  0  0  0
   -4.1258    8.2502  -17.9255 C   0  0  0  0  0  0  0  0  0  0  0  0
   -5.5421    5.4806  -16.8259 N   0  0  0  0  0  0  0  0  0  0  0  0
   -6.7812    5.0440  -16.8919 C   0  0  0  0  0  0  0  0  0  0  0  0
   -8.5967    3.5888  -11.4040 C   0  0  0  0  0  0  0  0  0  0  0  0
   -8.6284    3.7003  -10.0270 C   0  0  0  0  0  0  0  0  0  0  0  0
  1  2  1  0
  2  3  1  0
  2  4  1  0
  2  5  1  0
  5  6  1  0
  6  7  2  0
  6  8  1  0
  9  8  1  1
  9 10  1  0
 10 11  1  0
 11 12  1  0
 12 13  2  0
 13 14  1  0
 14 15  2  0
 15 16  1  0
 16 17  1  0
 17 18  2  0
 17 19  1  0
 19 20  2  0
 20 21  1  0
 21 22  2  0
 22 23  1  0
 23 24  1  0
 24 25  2  0
 25 26  1  0
 26 27  1  0
 27 28  1  0
 28 29  1  0
 29 30  1  0
 30 31  1  0
 25 32  1  0
 32 33  2  0
 15 34  1  0
 34 35  2  0
 35  9  1  0
 35 12  1  0
 33 19  1  0
 33 23  1  0
 31 27  1  0
M  END
>  <name>  (66) 
P118445

>  <alias>  (66) 
None

>  <smina_score_min>  (66) 
-7.326

>  <exports>  (66) 
['/opt/xchem-fragalysis-2/maxwin/BulkDock/OUTPUTS/openbind_xx01zvns2b_c2_elabs_1LOUTNY.sdf', '/opt/xchem-fragalysis-2/maxwin/BulkDock/OUTPUTS/openbind_xx01zvns2b_c2_elabs_1LSYIIV.sdf', '/opt/xchem-fragalysis-2/maxwin/openbind-hippo/xx01zvns2b/cycle_02/gnina/openbind_xx01zvns2b_c2_elabs_scored_6.2plus_products.sdf']

>  <tags>  (66) 
syndirella_placed,openbind_xx01zvns2b_c2_elabs,openbind_xx01zvns2b_c2_elabs_scored_6.2plus,syndirella_product,openbind_xx01zvns2b_c2_elabs_scored,openbind_xx01zvns2b_c2_elabs_scored_top80percent,BulkDock Fragalysis export,openbind_xx01zvns2b_c2_elabs_scored_top80percent_despaghettified

>  <subsites>  (66) 
1 - Z4590/B/203/1

>  <smiles>  (66) 
CC(C)(C)OC(=O)N[C@H]1CCc2ccc(NC(=O)c3cccn4cc(CN5CCCC5)nc34)cc21

>  <HIPPO Pose ID>  (66) 
118445

>  <energy_score>  (66) 
-14.906546

>  <inchikey>  (66) 
KZTQMFRDPCWJOS-QHCPKHFHSA-N

>  <gnina_score_min>  (66) 
6.785

>  <gnina_score>  (66) 
6.782

>  <ref_mols>  (66) 
Z3093a

>  <HIPPO Compound ID>  (66) 
182261

>  <distance_score>  (66) 
0.574588

>  <rmsd(smina/fragmenstein)>  (66) 
0.7

>  <ref_pdb>  (66) 
Z3093a

>  <inspiration_score>  (66) 
None

$$$$
P118451
     RDKit          3D

 36 39  0  0  0  0  0  0  0  0999 V2000
   -1.9243    3.1891   -9.5570 C   0  0  0  0  0  0  0  0  0  0  0  0
   -2.0181    2.3610  -10.8444 C   0  0  0  0  0  0  0  0  0  0  0  0
   -1.5311    0.9250  -10.6356 C   0  0  0  0  0  0  0  0  0  0  0  0
   -1.1417    3.0247  -11.9152 C   0  0  0  0  0  0  0  0  0  0  0  0
   -3.3592    2.3952  -11.3946 O   0  0  0  0  0  0  0  0  0  0  0  0
   -4.4090    1.8969  -10.6884 C   0  0  0  0  0  0  0  0  0  0  0  0
   -4.3249    1.3640   -9.6635 O   0  0  0  0  0  0  0  0  0  0  0  0
   -5.6305    2.2741  -11.5040 N   0  0  0  0  0  0  0  0  0  0  0  0
   -7.0276    2.1644  -11.1967 C   0  0  0  0  0  0  0  0  0  0  0  0
   -7.5874    3.5058  -10.8034 C   0  0  0  0  0  0  0  0  0  0  0  0
   -7.8453    3.7179   -9.4290 C   0  0  0  0  0  0  0  0  0  0  0  0
   -8.1684    4.9930   -8.9627 C   0  0  0  0  0  0  0  0  0  0  0  0
   -8.3882    5.2217   -7.5344 N   0  0  0  0  0  0  0  0  0  0  0  0
   -8.1964    6.3701   -7.1036 O   0  0  0  0  0  0  0  0  0  0  0  0
   -8.7665    4.2695   -6.8422 O   0  0  0  0  0  0  0  0  0  0  0  0
   -8.2453    6.0691   -9.8450 C   0  0  0  0  0  0  0  0  0  0  0  0
   -8.0308    5.8533  -11.2075 C   0  0  0  0  0  0  0  0  0  0  0  0
   -7.7265    4.5777  -11.7068 C   0  0  0  0  0  0  0  0  0  0  0  0
   -7.6093    4.4172  -13.0968 N   0  0  0  0  0  0  0  0  0  0  0  0
   -7.6597    5.4670  -14.2411 C   0  0  0  0  0  0  0  0  0  0  0  0
   -7.7292    6.6336  -14.1966 O   0  0  0  0  0  0  0  0  0  0  0  0
   -7.7194    4.7777  -15.5665 C   0  0  0  0  0  0  0  0  0  0  0  0
   -8.9215    4.2640  -15.9095 C   0  0  0  0  0  0  0  0  0  0  0  0
   -9.2538    3.9422  -17.2896 C   0  0  0  0  0  0  0  0  0  0  0  0
   -8.3411    4.1706  -18.2440 C   0  0  0  0  0  0  0  0  0  0  0  0
   -7.1009    4.6833  -17.8828 N   0  0  0  0  0  0  0  0  0  0  0  0
   -6.0388    5.0028  -18.6838 C   0  0  0  0  0  0  0  0  0  0  0  0
   -5.0445    5.4383  -17.8335 C   0  0  0  0  0  0  0  0  0  0  0  0
   -3.6582    5.8722  -18.1939 C   0  0  0  0  0  0  0  0  0  0  0  0
   -3.3022    7.1303  -17.5363 N   0  0  0  0  0  0  0  0  0  0  0  0
   -4.1501    8.2595  -17.9037 C   0  0  0  0  0  0  0  0  0  0  0  0
   -3.3676    9.4463  -17.3643 C   0  0  0  0  0  0  0  0  0  0  0  0
   -1.9107    8.9942  -17.3626 C   0  0  0  0  0  0  0  0  0  0  0  0
   -1.9386    7.5491  -17.8386 C   0  0  0  0  0  0  0  0  0  0  0  0
   -5.4916    5.4226  -16.5258 N   0  0  0  0  0  0  0  0  0  0  0  0
   -6.7335    4.9881  -16.5734 C   0  0  0  0  0  0  0  0  0  0  0  0
  1  2  1  0
  2  3  1  0
  2  4  1  0
  2  5  1  0
  5  6  1  0
  6  7  2  0
  6  8  1  0
  8  9  1  0
  9 10  1  0
 10 11  2  0
 11 12  1  0
 12 13  1  0
 13 14  2  0
 13 15  1  0
 12 16  2  0
 16 17  1  0
 17 18  2  0
 18 19  1  0
 19 20  1  0
 20 21  2  0
 20 22  1  0
 22 23  2  0
 23 24  1  0
 24 25  2  0
 25 26  1  0
 26 27  1  0
 27 28  2  0
 28 29  1  0
 29 30  1  0
 30 31  1  0
 31 32  1  0
 32 33  1  0
 33 34  1  0
 28 35  1  0
 35 36  2  0
 18 10  1  0
 36 22  1  0
 36 26  1  0
 34 30  1  0
M  CHG  2  13   1  15  -1
M  END
>  <name>  (67) 
P118451

>  <alias>  (67) 
None

>  <smina_score_min>  (67) 
-7.158

>  <exports>  (67) 
['/opt/xchem-fragalysis-2/maxwin/BulkDock/OUTPUTS/openbind_xx01zvns2b_c2_elabs_1LOUTNY.sdf', '/opt/xchem-fragalysis-2/maxwin/BulkDock/OUTPUTS/openbind_xx01zvns2b_c2_elabs_1LSYIIV.sdf', '/opt/xchem-fragalysis-2/maxwin/openbind-hippo/xx01zvns2b/cycle_02/gnina/openbind_xx01zvns2b_c2_elabs_scored_6.2plus_products.sdf']

>  <tags>  (67) 
syndirella_placed,openbind_xx01zvns2b_c2_elabs,openbind_xx01zvns2b_c2_elabs_scored_6.2plus,syndirella_product,openbind_xx01zvns2b_c2_elabs_scored,openbind_xx01zvns2b_c2_elabs_scored_top80percent,BulkDock Fragalysis export,openbind_xx01zvns2b_c2_elabs_scored_top80percent_despaghettified

>  <subsites>  (67) 
1 - Z4590/B/203/1

>  <smiles>  (67) 
CC(C)(C)OC(=O)NCc1cc([N+](=O)[O-])ccc1NC(=O)c1cccn2cc(CN3CCCC3)nc12

>  <HIPPO Pose ID>  (67) 
118451

>  <energy_score>  (67) 
-58.54969

>  <inchikey>  (67) 
MQGNWFUHMHHZIG-UHFFFAOYSA-N

>  <gnina_score_min>  (67) 
6.266

>  <gnina_score>  (67) 
6.437

>  <ref_mols>  (67) 
Z3093a

>  <HIPPO Compound ID>  (67) 
182268

>  <distance_score>  (67) 
0.667576

>  <rmsd(smina/fragmenstein)>  (67) 
0.825

>  <ref_pdb>  (67) 
Z3093a

>  <inspiration_score>  (67) 
None

$$$$
P118454
     RDKit          3D

 36 40  0  0  0  0  0  0  0  0999 V2000
  -10.5220   13.0063  -12.2187 C   0  0  0  0  0  0  0  0  0  0  0  0
  -10.2501   11.6649  -12.9178 C   0  0  0  0  0  0  0  0  0  0  0  0
  -11.5515   11.1886  -13.5711 C   0  0  0  0  0  0  0  0  0  0  0  0
   -9.1352   11.8644  -13.9480 C   0  0  0  0  0  0  0  0  0  0  0  0
   -9.8027   10.7800  -11.8609 O   0  0  0  0  0  0  0  0  0  0  0  0
   -9.5785    9.4581  -12.1006 C   0  0  0  0  0  0  0  0  0  0  0  0
   -9.7585    8.9249  -13.1151 O   0  0  0  0  0  0  0  0  0  0  0  0
   -9.0647    8.9114  -10.7737 N   0  0  0  0  0  0  0  0  0  0  0  0
   -8.5850    7.6475  -10.4403 C   0  0  0  0  0  0  0  0  0  0  0  0
   -8.1218    7.4665   -9.1375 C   0  0  0  0  0  0  0  0  0  0  0  0
   -7.7027    6.2091   -8.7206 C   0  0  0  0  0  0  0  0  0  0  0  0
   -7.7532    5.1315   -9.5981 C   0  0  0  0  0  0  0  0  0  0  0  0
   -8.1959    5.2883  -10.9216 C   0  0  0  0  0  0  0  0  0  0  0  0
   -8.6033    6.5690  -11.3331 C   0  0  0  0  0  0  0  0  0  0  0  0
   -8.3510    4.0495  -11.7688 C   0  0  1  0  0  0  0  0  0  0  0  0
   -8.2980    4.1579  -13.2113 N   0  0  0  0  0  0  0  0  0  0  0  0
   -7.4425    5.0800  -14.1227 C   0  0  0  0  0  0  0  0  0  0  0  0
   -6.7080    5.9449  -13.8471 O   0  0  0  0  0  0  0  0  0  0  0  0
   -7.7437    4.7365  -15.5797 C   0  0  0  0  0  0  0  0  0  0  0  0
   -8.9818    4.3508  -15.9702 C   0  0  0  0  0  0  0  0  0  0  0  0
   -9.3350    4.0864  -17.3544 C   0  0  0  0  0  0  0  0  0  0  0  0
   -8.4022    4.2659  -18.2968 C   0  0  0  0  0  0  0  0  0  0  0  0
   -7.1387    4.7023  -17.9189 N   0  0  0  0  0  0  0  0  0  0  0  0
   -6.0678    4.9995  -18.7187 C   0  0  0  0  0  0  0  0  0  0  0  0
   -5.0572    5.3869  -17.8666 C   0  0  0  0  0  0  0  0  0  0  0  0
   -3.6675    5.8150  -18.2211 C   0  0  0  0  0  0  0  0  0  0  0  0
   -3.3126    7.0798  -17.5762 N   0  0  0  0  0  0  0  0  0  0  0  0
   -1.9506    7.5007  -17.8775 C   0  0  0  0  0  0  0  0  0  0  0  0
   -1.9263    8.9472  -17.4048 C   0  0  0  0  0  0  0  0  0  0  0  0
   -3.3847    9.3945  -17.4020 C   0  0  0  0  0  0  0  0  0  0  0  0
   -4.1655    8.2052  -17.9390 C   0  0  0  0  0  0  0  0  0  0  0  0
   -5.4917    5.3287  -16.5591 N   0  0  0  0  0  0  0  0  0  0  0  0
   -6.7524    4.9442  -16.5994 C   0  0  0  0  0  0  0  0  0  0  0  0
   -7.4236    2.9512  -11.2786 C   0  0  0  0  0  0  0  0  0  0  0  0
   -7.6706    2.7762   -9.7922 C   0  0  0  0  0  0  0  0  0  0  0  0
   -7.3272    3.9493   -9.0556 O   0  0  0  0  0  0  0  0  0  0  0  0
  1  2  1  0
  2  3  1  0
  2  4  1  0
  2  5  1  0
  5  6  1  0
  6  7  2  0
  6  8  1  0
  8  9  1  0
  9 10  2  0
 10 11  1  0
 11 12  2  0
 12 13  1  0
 13 14  2  0
 13 15  1  0
 15 16  1  6
 16 17  1  0
 17 18  2  0
 17 19  1  0
 19 20  2  0
 20 21  1  0
 21 22  2  0
 22 23  1  0
 23 24  1  0
 24 25  2  0
 25 26  1  0
 26 27  1  0
 27 28  1  0
 28 29  1  0
 29 30  1  0
 30 31  1  0
 25 32  1  0
 32 33  2  0
 15 34  1  0
 34 35  1  0
 35 36  1  0
 14  9  1  0
 33 19  1  0
 36 12  1  0
 33 23  1  0
 31 27  1  0
M  END
>  <name>  (68) 
P118454

>  <alias>  (68) 
None

>  <smina_score_min>  (68) 
-7.318

>  <exports>  (68) 
['/opt/xchem-fragalysis-2/maxwin/BulkDock/OUTPUTS/openbind_xx01zvns2b_c2_elabs_1LOUTNY.sdf', '/opt/xchem-fragalysis-2/maxwin/BulkDock/OUTPUTS/openbind_xx01zvns2b_c2_elabs_1LSYIIV.sdf', '/opt/xchem-fragalysis-2/maxwin/openbind-hippo/xx01zvns2b/cycle_02/gnina/openbind_xx01zvns2b_c2_elabs_scored_6.2plus_products.sdf']

>  <tags>  (68) 
syndirella_placed,openbind_xx01zvns2b_c2_elabs,openbind_xx01zvns2b_c2_elabs_scored_6.2plus,syndirella_product,openbind_xx01zvns2b_c2_elabs_scored,openbind_xx01zvns2b_c2_elabs_scored_top80percent,BulkDock Fragalysis export,openbind_xx01zvns2b_c2_elabs_scored_top80percent_despaghettified

>  <subsites>  (68) 
1 - Z4590/B/203/1

>  <smiles>  (68) 
CC(C)(C)OC(=O)Nc1ccc2c(c1)[C@@H](NC(=O)c1cccn3cc(CN4CCCC4)nc13)CCO2

>  <HIPPO Pose ID>  (68) 
118454

>  <energy_score>  (68) 
-35.822794

>  <inchikey>  (68) 
VTHHEUFHEUCSBX-QFIPXVFZSA-N

>  <gnina_score_min>  (68) 
6.52

>  <gnina_score>  (68) 
6.474

>  <ref_mols>  (68) 
Z3093a

>  <HIPPO Compound ID>  (68) 
182271

>  <distance_score>  (68) 
0.658325

>  <rmsd(smina/fragmenstein)>  (68) 
0.781

>  <ref_pdb>  (68) 
Z3093a

>  <inspiration_score>  (68) 
None

$$$$
P118459
     RDKit          3D

 36 41  0  0  0  0  0  0  0  0999 V2000
   -9.0386    1.3932   -8.4998 C   0  0  0  0  0  0  0  0  0  0  0  0
   -7.7013    1.7817   -9.0344 C   0  0  0  0  0  0  0  0  0  0  0  0
   -6.7524    1.0530   -9.5982 N   0  0  0  0  0  0  0  0  0  0  0  0
   -5.7211    1.9024   -9.8872 C   0  0  0  0  0  0  0  0  0  0  0  0
   -4.4936    1.6365  -10.5104 C   0  0  0  0  0  0  0  0  0  0  0  0
   -3.5816    2.6860  -10.6690 C   0  0  0  0  0  0  0  0  0  0  0  0
   -3.8848    3.9700  -10.2115 C   0  0  0  0  0  0  0  0  0  0  0  0
   -5.1065    4.2512   -9.5871 C   0  0  0  0  0  0  0  0  0  0  0  0
   -6.0092    3.1888   -9.4481 C   0  0  0  0  0  0  0  0  0  0  0  0
   -7.2923    3.0796   -8.9468 N   0  0  0  0  0  0  0  0  0  0  0  0
   -8.1619    4.1518   -8.5166 C   0  0  0  0  0  0  0  0  0  0  0  0
   -8.3348    5.1284   -9.6434 C   0  0  0  0  0  0  0  0  0  0  0  0
   -8.4303    4.6620  -10.9785 C   0  0  0  0  0  0  0  0  0  0  0  0
   -8.2385    5.5480  -12.0220 C   0  0  0  0  0  0  0  0  0  0  0  0
   -8.1425    5.1055  -13.3315 N   0  0  0  0  0  0  0  0  0  0  0  0
   -7.5467    5.7908  -14.5801 C   0  0  0  0  0  0  0  0  0  0  0  0
   -7.1130    6.8649  -14.7183 O   0  0  0  0  0  0  0  0  0  0  0  0
   -7.6728    4.8953  -15.7815 C   0  0  0  0  0  0  0  0  0  0  0  0
   -8.8800    4.3588  -16.0744 C   0  0  0  0  0  0  0  0  0  0  0  0
   -9.2168    3.9168  -17.4208 C   0  0  0  0  0  0  0  0  0  0  0  0
   -8.3177    4.0853  -18.4011 C   0  0  0  0  0  0  0  0  0  0  0  0
   -7.0720    4.6170  -18.0913 N   0  0  0  0  0  0  0  0  0  0  0  0
   -6.0207    4.9078  -18.9199 C   0  0  0  0  0  0  0  0  0  0  0  0
   -5.0156    5.3848  -18.1047 C   0  0  0  0  0  0  0  0  0  0  0  0
   -3.6500    5.8581  -18.4953 C   0  0  0  0  0  0  0  0  0  0  0  0
   -3.2498    7.0434  -17.7337 N   0  0  0  0  0  0  0  0  0  0  0  0
   -1.9089    7.5035  -18.0688 C   0  0  0  0  0  0  0  0  0  0  0  0
   -1.8533    8.8825  -17.4280 C   0  0  0  0  0  0  0  0  0  0  0  0
   -3.3062    9.3336  -17.3171 C   0  0  0  0  0  0  0  0  0  0  0  0
   -4.1222    8.1993  -17.9179 C   0  0  0  0  0  0  0  0  0  0  0  0
   -5.4355    5.3913  -16.7933 N   0  0  0  0  0  0  0  0  0  0  0  0
   -6.6863    4.9838  -16.8090 C   0  0  0  0  0  0  0  0  0  0  0  0
   -8.1034    6.9093  -11.7536 C   0  0  0  0  0  0  0  0  0  0  0  0
   -8.1630    7.3895  -10.4488 C   0  0  0  0  0  0  0  0  0  0  0  0
   -8.2717    6.5017   -9.3908 C   0  0  0  0  0  0  0  0  0  0  0  0
   -8.2744    7.1641   -7.7951 Cl  0  0  0  0  0  0  0  0  0  0  0  0
  1  2  1  0
  2  3  2  0
  3  4  1  0
  4  5  2  0
  5  6  1  0
  6  7  2  0
  7  8  1  0
  8  9  2  0
  9 10  1  0
 10 11  1  0
 11 12  1  0
 12 13  2  0
 13 14  1  0
 14 15  1  0
 15 16  1  0
 16 17  2  0
 16 18  1  0
 18 19  2  0
 19 20  1  0
 20 21  2  0
 21 22  1  0
 22 23  1  0
 23 24  2  0
 24 25  1  0
 25 26  1  0
 26 27  1  0
 27 28  1  0
 28 29  1  0
 29 30  1  0
 24 31  1  0
 31 32  2  0
 14 33  2  0
 33 34  1  0
 34 35  2  0
 35 36  1  0
 10  2  1  0
 35 12  1  0
  9  4  1  0
 32 18  1  0
 32 22  1  0
 30 26  1  0
M  END
>  <name>  (69) 
P118459

>  <alias>  (69) 
None

>  <smina_score_min>  (69) 
-6.903

>  <exports>  (69) 
['/opt/xchem-fragalysis-2/maxwin/BulkDock/OUTPUTS/openbind_xx01zvns2b_c2_elabs_1LOUTNY.sdf', '/opt/xchem-fragalysis-2/maxwin/BulkDock/OUTPUTS/openbind_xx01zvns2b_c2_elabs_1LSYIIV.sdf', '/opt/xchem-fragalysis-2/maxwin/openbind-hippo/xx01zvns2b/cycle_02/gnina/openbind_xx01zvns2b_c2_elabs_scored_6.2plus_products.sdf']

>  <tags>  (69) 
syndirella_placed,openbind_xx01zvns2b_c2_elabs,openbind_xx01zvns2b_c2_elabs_scored_6.2plus,syndirella_product,openbind_xx01zvns2b_c2_elabs_scored,openbind_xx01zvns2b_c2_elabs_scored_top80percent,BulkDock Fragalysis export,openbind_xx01zvns2b_c2_elabs_scored_top80percent_despaghettified

>  <subsites>  (69) 
1 - Z4590/B/203/1

>  <smiles>  (69) 
Cc1nc2ccccc2n1Cc1cc(NC(=O)c2cccn3cc(CN4CCCC4)nc23)ccc1Cl

>  <HIPPO Pose ID>  (69) 
118459

>  <energy_score>  (69) 
-33.797032

>  <inchikey>  (69) 
ORRQLRFFXXNZON-UHFFFAOYSA-N

>  <gnina_score_min>  (69) 
6.577

>  <gnina_score>  (69) 
6.837

>  <ref_mols>  (69) 
Z3093a

>  <HIPPO Compound ID>  (69) 
182281

>  <distance_score>  (69) 
1.025191

>  <rmsd(smina/fragmenstein)>  (69) 
0.89

>  <ref_pdb>  (69) 
Z3093a

>  <inspiration_score>  (69) 
None

$$$$
P118463
     RDKit          3D

 36 41  0  0  0  0  0  0  0  0999 V2000
   -1.9140    1.7255  -10.2805 O   0  0  0  0  0  0  0  0  0  0  0  0
   -3.1393    1.8072  -10.3121 C   0  0  0  0  0  0  0  0  0  0  0  0
   -4.0104    0.6640  -10.7528 C   0  0  0  0  0  0  0  0  0  0  0  0
   -5.4306    1.1129  -11.0765 C   0  0  0  0  0  0  0  0  0  0  0  0
   -6.0362    1.8428   -9.8679 C   0  0  2  0  0  0  0  0  0  0  0  0
   -7.4679    2.1708   -9.9744 N   0  0  0  0  0  0  0  0  0  0  0  0
   -8.1257    2.9408   -8.9147 C   0  0  0  0  0  0  0  0  0  0  0  0
   -8.3830    4.2397   -9.6014 C   0  0  0  0  0  0  0  0  0  0  0  0
   -8.4680    5.5166   -9.0890 C   0  0  0  0  0  0  0  0  0  0  0  0
   -8.4316    6.5842   -9.9938 C   0  0  0  0  0  0  0  0  0  0  0  0
   -8.3007    6.3660  -11.3824 C   0  0  0  0  0  0  0  0  0  0  0  0
   -8.2325    5.0712  -11.8888 C   0  0  0  0  0  0  0  0  0  0  0  0
   -8.0066    4.7904  -13.2311 N   0  0  0  0  0  0  0  0  0  0  0  0
   -7.6278    5.7234  -14.4003 C   0  0  0  0  0  0  0  0  0  0  0  0
   -7.3706    6.8610  -14.4067 O   0  0  0  0  0  0  0  0  0  0  0  0
   -7.7325    4.9531  -15.6878 C   0  0  0  0  0  0  0  0  0  0  0  0
   -8.9188    4.3835  -15.9995 C   0  0  0  0  0  0  0  0  0  0  0  0
   -9.2372    3.9597  -17.3549 C   0  0  0  0  0  0  0  0  0  0  0  0
   -8.3245    4.1407  -18.3194 C   0  0  0  0  0  0  0  0  0  0  0  0
   -7.0930    4.6924  -17.9876 N   0  0  0  0  0  0  0  0  0  0  0  0
   -6.0280    4.9734  -18.8006 C   0  0  0  0  0  0  0  0  0  0  0  0
   -5.0414    5.4665  -17.9733 C   0  0  0  0  0  0  0  0  0  0  0  0
   -3.6602    5.9049  -18.3492 C   0  0  0  0  0  0  0  0  0  0  0  0
   -3.2656    7.1202  -17.6353 N   0  0  0  0  0  0  0  0  0  0  0  0
   -4.1151    8.2761  -17.9034 C   0  0  0  0  0  0  0  0  0  0  0  0
   -3.3015    9.4247  -17.3283 C   0  0  0  0  0  0  0  0  0  0  0  0
   -1.8512    8.9562  -17.3913 C   0  0  0  0  0  0  0  0  0  0  0  0
   -1.9092    7.5446  -17.9564 C   0  0  0  0  0  0  0  0  0  0  0  0
   -5.4949    5.5182  -16.6713 N   0  0  0  0  0  0  0  0  0  0  0  0
   -6.7378    5.0861  -16.7008 C   0  0  0  0  0  0  0  0  0  0  0  0
   -8.3109    4.0413  -10.9749 C   0  0  0  0  0  0  0  0  0  0  0  0
   -7.8918    2.6684  -11.1990 C   0  0  0  0  0  0  0  0  0  0  0  0
   -7.7905    2.1694  -12.3017 O   0  0  0  0  0  0  0  0  0  0  0  0
   -5.1132    3.0527   -9.5333 C   0  0  0  0  0  0  0  0  0  0  0  0
   -5.4526    4.0663   -8.9234 O   0  0  0  0  0  0  0  0  0  0  0  0
   -3.7822    2.9219   -9.8549 N   0  0  0  0  0  0  0  0  0  0  0  0
  1  2  2  0
  2  3  1  0
  3  4  1  0
  4  5  1  0
  5  6  1  6
  6  7  1  0
  7  8  1  0
  8  9  2  0
  9 10  1  0
 10 11  2  0
 11 12  1  0
 12 13  1  0
 13 14  1  0
 14 15  2  0
 14 16  1  0
 16 17  2  0
 17 18  1  0
 18 19  2  0
 19 20  1  0
 20 21  1  0
 21 22  2  0
 22 23  1  0
 23 24  1  0
 24 25  1  0
 25 26  1  0
 26 27  1  0
 27 28  1  0
 22 29  1  0
 29 30  2  0
 12 31  2  0
 31 32  1  0
 32 33  2  0
  5 34  1  0
 34 35  2  0
 34 36  1  0
 36  2  1  0
 32  6  1  0
 31  8  1  0
 30 16  1  0
 30 20  1  0
 28 24  1  0
M  END
>  <name>  (70) 
P118463

>  <alias>  (70) 
None

>  <smina_score_min>  (70) 
-8.338

>  <exports>  (70) 
['/opt/xchem-fragalysis-2/maxwin/BulkDock/OUTPUTS/openbind_xx01zvns2b_c2_elabs_1LOUTNY.sdf', '/opt/xchem-fragalysis-2/maxwin/BulkDock/OUTPUTS/openbind_xx01zvns2b_c2_elabs_1LSYIIV.sdf', '/opt/xchem-fragalysis-2/maxwin/openbind-hippo/xx01zvns2b/cycle_02/gnina/openbind_xx01zvns2b_c2_elabs_scored_6.2plus_products.sdf']

>  <tags>  (70) 
syndirella_placed,openbind_xx01zvns2b_c2_elabs,openbind_xx01zvns2b_c2_elabs_scored_6.2plus,syndirella_product,openbind_xx01zvns2b_c2_elabs_scored,openbind_xx01zvns2b_c2_elabs_scored_top80percent,BulkDock Fragalysis export,openbind_xx01zvns2b_c2_elabs_scored_top80percent_despaghettified

>  <subsites>  (70) 
1 - Z4590/B/203/1

>  <smiles>  (70) 
O=C1CC[C@H](N2Cc3cccc(NC(=O)c4cccn5cc(CN6CCCC6)nc45)c3C2=O)C(=O)N1

>  <HIPPO Pose ID>  (70) 
118463

>  <energy_score>  (70) 
-17.270648

>  <inchikey>  (70) 
NKJCIMXBASJBEO-FQEVSTJZSA-N

>  <gnina_score_min>  (70) 
6.515

>  <gnina_score>  (70) 
6.573

>  <ref_mols>  (70) 
Z3093a

>  <HIPPO Compound ID>  (70) 
182289

>  <distance_score>  (70) 
0.741496

>  <rmsd(smina/fragmenstein)>  (70) 
0.779

>  <ref_pdb>  (70) 
Z3093a

>  <inspiration_score>  (70) 
None

$$$$
P118475
     RDKit          3D

 33 36  0  0  0  0  0  0  0  0999 V2000
   -9.7276    3.6873   -4.5583 C   0  0  0  0  0  0  0  0  0  0  0  0
  -10.4289    2.5906   -5.3489 C   0  0  0  0  0  0  0  0  0  0  0  0
   -9.5901    1.9570   -6.4618 C   0  0  0  0  0  0  0  0  0  0  0  0
   -9.5321    2.7804   -7.6513 N   0  0  0  0  0  0  0  0  0  0  0  0
   -8.6951    3.9833   -7.5480 C   0  0  0  0  0  0  0  0  0  0  0  0
   -8.3481    4.2786   -8.9677 C   0  0  0  0  0  0  0  0  0  0  0  0
   -7.9377    5.4632   -9.5400 C   0  0  0  0  0  0  0  0  0  0  0  0
   -7.7491    5.4799  -10.9202 C   0  0  0  0  0  0  0  0  0  0  0  0
   -7.9485    4.3201  -11.6898 C   0  0  0  0  0  0  0  0  0  0  0  0
   -7.7569    4.3414  -13.0639 N   0  0  0  0  0  0  0  0  0  0  0  0
   -7.3850    5.5024  -14.0040 C   0  0  0  0  0  0  0  0  0  0  0  0
   -7.1052    6.6089  -13.7651 O   0  0  0  0  0  0  0  0  0  0  0  0
   -7.3352    5.0437  -15.4026 C   0  0  0  0  0  0  0  0  0  0  0  0
   -8.4671    4.5401  -16.0351 C   0  0  0  0  0  0  0  0  0  0  0  0
   -8.3965    4.2657  -17.3971 C   0  0  0  0  0  0  0  0  0  0  0  0
   -9.8039    3.7359  -18.2182 Cl  0  0  0  0  0  0  0  0  0  0  0  0
   -7.2127    4.4577  -18.1118 C   0  0  0  0  0  0  0  0  0  0  0  0
   -6.0725    4.9031  -17.4468 C   0  0  0  0  0  0  0  0  0  0  0  0
   -4.8720    5.0188  -18.1329 N   0  0  0  0  0  0  0  0  0  0  0  0
   -3.4681    5.3493  -17.6290 C   0  0  0  0  0  0  0  0  0  0  0  0
   -3.0724    5.5033  -16.5474 O   0  0  0  0  0  0  0  0  0  0  0  0
   -2.6971    5.4274  -18.7439 O   0  0  0  0  0  0  0  0  0  0  0  0
   -1.3418    5.8383  -18.5183 C   0  0  0  0  0  0  0  0  0  0  0  0
   -1.2072    7.2918  -18.8921 C   0  0  0  0  0  0  0  0  0  0  0  0
   -1.8640    8.2881  -18.1534 C   0  0  0  0  0  0  0  0  0  0  0  0
   -1.7622    9.6285  -18.5247 C   0  0  0  0  0  0  0  0  0  0  0  0
   -0.9920    9.9875  -19.6283 C   0  0  0  0  0  0  0  0  0  0  0  0
   -0.3224    9.0079  -20.3595 C   0  0  0  0  0  0  0  0  0  0  0  0
   -0.4306    7.6657  -19.9952 C   0  0  0  0  0  0  0  0  0  0  0  0
   -6.1380    5.2139  -16.0932 C   0  0  0  0  0  0  0  0  0  0  0  0
   -8.3404    3.1220  -11.0910 C   0  0  0  0  0  0  0  0  0  0  0  0
   -8.5524    3.1268   -9.7286 C   0  0  0  0  0  0  0  0  0  0  0  0
   -9.0406    2.0366   -8.8306 C   0  0  0  0  0  0  0  0  0  0  0  0
  1  2  1  0
  2  3  1  0
  3  4  1  0
  4  5  1  0
  5  6  1  0
  6  7  2  0
  7  8  1  0
  8  9  2  0
  9 10  1  0
 10 11  1  0
 11 12  2  0
 11 13  1  0
 13 14  2  0
 14 15  1  0
 15 16  1  0
 15 17  2  0
 17 18  1  0
 18 19  1  0
 19 20  1  0
 20 21  2  0
 20 22  1  0
 22 23  1  0
 23 24  1  0
 24 25  2  0
 25 26  1  0
 26 27  2  0
 27 28  1  0
 28 29  2  0
 18 30  2  0
  9 31  1  0
 31 32  2  0
 32 33  1  0
 33  4  1  0
 32  6  1  0
 30 13  1  0
 29 24  1  0
M  END
>  <name>  (71) 
P118475

>  <alias>  (71) 
None

>  <smina_score_min>  (71) 
-8.212

>  <exports>  (71) 
['/opt/xchem-fragalysis-2/maxwin/BulkDock/OUTPUTS/openbind_xx01zvns2b_c2_elabs_1LOUTNY.sdf', '/opt/xchem-fragalysis-2/maxwin/BulkDock/OUTPUTS/openbind_xx01zvns2b_c2_elabs_1LSYIIV.sdf', '/opt/xchem-fragalysis-2/maxwin/openbind-hippo/xx01zvns2b/cycle_02/gnina/openbind_xx01zvns2b_c2_elabs_scored_6.2plus_products.sdf']

>  <tags>  (71) 
syndirella_placed,openbind_xx01zvns2b_c2_elabs,openbind_xx01zvns2b_c2_elabs_scored_6.2plus,syndirella_product,openbind_xx01zvns2b_c2_elabs_scored,openbind_xx01zvns2b_c2_elabs_scored_top80percent,BulkDock Fragalysis export,openbind_xx01zvns2b_c2_elabs_scored_top80percent_despaghettified

>  <subsites>  (71) 
1 - Z4590/B/203/1

>  <smiles>  (71) 
CCCN1Cc2ccc(NC(=O)c3cc(Cl)cc(NC(=O)OCc4ccccc4)c3)cc2C1

>  <HIPPO Pose ID>  (71) 
118475

>  <energy_score>  (71) 
-33.443237

>  <inchikey>  (71) 
MVIONGVMGFNPBI-UHFFFAOYSA-N

>  <gnina_score_min>  (71) 
6.202

>  <gnina_score>  (71) 
5.915

>  <ref_mols>  (71) 
Z3059a

>  <HIPPO Compound ID>  (71) 
182298

>  <distance_score>  (71) 
0.602733

>  <rmsd(smina/fragmenstein)>  (71) 
1.408

>  <ref_pdb>  (71) 
Z3059a

>  <inspiration_score>  (71) 
None

$$$$
P118490
     RDKit          3D

 36 39  0  0  0  0  0  0  0  0999 V2000
   -6.6085    5.0863   -3.4949 C   0  0  0  0  0  0  0  0  0  0  0  0
   -8.1159    5.0880   -3.6492 C   0  0  0  0  0  0  0  0  0  0  0  0
   -8.4987    3.9157   -4.3608 O   0  0  0  0  0  0  0  0  0  0  0  0
   -9.9026    3.8940   -4.6171 C   0  0  0  0  0  0  0  0  0  0  0  0
  -10.3698    2.6133   -5.3024 C   0  0  0  0  0  0  0  0  0  0  0  0
   -9.4757    2.0413   -6.3990 C   0  0  0  0  0  0  0  0  0  0  0  0
   -9.4905    2.8542   -7.5999 N   0  0  0  0  0  0  0  0  0  0  0  0
   -8.6115    4.0340   -7.5299 C   0  0  0  0  0  0  0  0  0  0  0  0
   -8.3161    4.3193   -8.9625 C   0  0  0  0  0  0  0  0  0  0  0  0
   -7.8960    5.4916   -9.5508 C   0  0  0  0  0  0  0  0  0  0  0  0
   -7.7557    5.4991  -10.9356 C   0  0  0  0  0  0  0  0  0  0  0  0
   -8.0162    4.3436  -11.6940 C   0  0  0  0  0  0  0  0  0  0  0  0
   -7.8862    4.3653  -13.0742 N   0  0  0  0  0  0  0  0  0  0  0  0
   -7.5007    5.5130  -14.0242 C   0  0  0  0  0  0  0  0  0  0  0  0
   -7.3059    6.6417  -13.8064 O   0  0  0  0  0  0  0  0  0  0  0  0
   -7.3944    5.0337  -15.4105 C   0  0  0  0  0  0  0  0  0  0  0  0
   -8.5028    4.5189  -16.0724 C   0  0  0  0  0  0  0  0  0  0  0  0
   -8.3929    4.2477  -17.4310 C   0  0  0  0  0  0  0  0  0  0  0  0
   -9.7760    3.7087  -18.2836 Cl  0  0  0  0  0  0  0  0  0  0  0  0
   -7.1932    4.4548  -18.1144 C   0  0  0  0  0  0  0  0  0  0  0  0
   -6.0760    4.9141  -17.4195 C   0  0  0  0  0  0  0  0  0  0  0  0
   -4.8637    5.0616  -18.0791 N   0  0  0  0  0  0  0  0  0  0  0  0
   -3.4802    5.4289  -17.5441 C   0  0  0  0  0  0  0  0  0  0  0  0
   -3.1438    5.7430  -16.4771 O   0  0  0  0  0  0  0  0  0  0  0  0
   -2.6545    5.3783  -18.6220 O   0  0  0  0  0  0  0  0  0  0  0  0
   -1.3129    5.8248  -18.3810 C   0  0  0  0  0  0  0  0  0  0  0  0
   -1.1809    7.2546  -18.8406 C   0  0  0  0  0  0  0  0  0  0  0  0
   -1.8057    8.2968  -18.1379 C   0  0  0  0  0  0  0  0  0  0  0  0
   -1.7096    9.6138  -18.5869 C   0  0  0  0  0  0  0  0  0  0  0  0
   -0.9770    9.9046  -19.7349 C   0  0  0  0  0  0  0  0  0  0  0  0
   -0.3417    8.8795  -20.4338 C   0  0  0  0  0  0  0  0  0  0  0  0
   -0.4458    7.5600  -19.9920 C   0  0  0  0  0  0  0  0  0  0  0  0
   -6.1803    5.2184  -16.0669 C   0  0  0  0  0  0  0  0  0  0  0  0
   -8.4132    3.1557  -11.0797 C   0  0  0  0  0  0  0  0  0  0  0  0
   -8.5728    3.1692   -9.7108 C   0  0  0  0  0  0  0  0  0  0  0  0
   -9.0451    2.0925   -8.7889 C   0  0  0  0  0  0  0  0  0  0  0  0
  1  2  1  0
  2  3  1  0
  3  4  1  0
  4  5  1  0
  5  6  1  0
  6  7  1  0
  7  8  1  0
  8  9  1  0
  9 10  2  0
 10 11  1  0
 11 12  2  0
 12 13  1  0
 13 14  1  0
 14 15  2  0
 14 16  1  0
 16 17  2  0
 17 18  1  0
 18 19  1  0
 18 20  2  0
 20 21  1  0
 21 22  1  0
 22 23  1  0
 23 24  2  0
 23 25  1  0
 25 26  1  0
 26 27  1  0
 27 28  2  0
 28 29  1  0
 29 30  2  0
 30 31  1  0
 31 32  2  0
 21 33  2  0
 12 34  1  0
 34 35  2  0
 35 36  1  0
 36  7  1  0
 35  9  1  0
 33 16  1  0
 32 27  1  0
M  END
>  <name>  (72) 
P118490

>  <alias>  (72) 
None

>  <smina_score_min>  (72) 
-7.809

>  <exports>  (72) 
['/opt/xchem-fragalysis-2/maxwin/BulkDock/OUTPUTS/openbind_xx01zvns2b_c2_elabs_1LOUTNY.sdf', '/opt/xchem-fragalysis-2/maxwin/BulkDock/OUTPUTS/openbind_xx01zvns2b_c2_elabs_1LSYIIV.sdf', '/opt/xchem-fragalysis-2/maxwin/openbind-hippo/xx01zvns2b/cycle_02/gnina/openbind_xx01zvns2b_c2_elabs_scored_6.2plus_products.sdf']

>  <tags>  (72) 
syndirella_placed,openbind_xx01zvns2b_c2_elabs,openbind_xx01zvns2b_c2_elabs_scored_6.2plus,syndirella_product,openbind_xx01zvns2b_c2_elabs_scored,openbind_xx01zvns2b_c2_elabs_scored_top80percent,BulkDock Fragalysis export,openbind_xx01zvns2b_c2_elabs_scored_top80percent_despaghettified

>  <subsites>  (72) 
1 - Z4590/B/203/1

>  <smiles>  (72) 
CCOCCCN1Cc2ccc(NC(=O)c3cc(Cl)cc(NC(=O)OCc4ccccc4)c3)cc2C1

>  <HIPPO Pose ID>  (72) 
118490

>  <energy_score>  (72) 
-28.63189

>  <inchikey>  (72) 
XTWFHCFOVKFFJH-UHFFFAOYSA-N

>  <gnina_score_min>  (72) 
6.469

>  <gnina_score>  (72) 
6.081

>  <ref_mols>  (72) 
Z3059a

>  <HIPPO Compound ID>  (72) 
182310

>  <distance_score>  (72) 
0.608903

>  <rmsd(smina/fragmenstein)>  (72) 
1.975

>  <ref_pdb>  (72) 
Z3059a

>  <inspiration_score>  (72) 
None

$$$$
P118496
     RDKit          3D

 39 43  0  0  0  0  0  0  0  0999 V2000
   -3.1296    5.4518  -16.5418 O   0  0  0  0  0  0  0  0  0  0  0  0
   -3.5131    5.3121  -17.6297 C   0  0  0  0  0  0  0  0  0  0  0  0
   -4.9079    4.9723  -18.1529 N   0  0  0  0  0  0  0  0  0  0  0  0
   -6.1132    4.8284  -17.4802 C   0  0  0  0  0  0  0  0  0  0  0  0
   -7.2449    4.3981  -18.1693 C   0  0  0  0  0  0  0  0  0  0  0  0
   -8.4402    4.1992  -17.4763 C   0  0  0  0  0  0  0  0  0  0  0  0
   -9.8465    3.7209  -18.3222 Cl  0  0  0  0  0  0  0  0  0  0  0  0
   -8.5319    4.4429  -16.1126 C   0  0  0  0  0  0  0  0  0  0  0  0
   -7.4086    4.9265  -15.4563 C   0  0  0  0  0  0  0  0  0  0  0  0
   -7.5292    5.4703  -14.1012 C   0  0  0  0  0  0  0  0  0  0  0  0
   -7.3635    6.6180  -13.9698 O   0  0  0  0  0  0  0  0  0  0  0  0
   -7.9299    4.3937  -13.0723 N   0  0  0  0  0  0  0  0  0  0  0  0
   -8.1117    4.4824  -11.6997 C   0  0  0  0  0  0  0  0  0  0  0  0
   -7.9784    5.7498  -11.0960 C   0  0  0  0  0  0  0  0  0  0  0  0
   -8.1734    5.9175   -9.7388 C   0  0  0  0  0  0  0  0  0  0  0  0
   -8.4901    4.7874   -9.0275 C   0  0  0  0  0  0  0  0  0  0  0  0
   -8.6075    3.5114   -9.5804 C   0  0  0  0  0  0  0  0  0  0  0  0
   -8.4257    3.3425  -10.9424 C   0  0  0  0  0  0  0  0  0  0  0  0
   -8.9294    2.5316   -8.4950 C   0  0  0  0  0  0  0  0  0  0  0  0
   -8.9252    3.3938   -7.3114 N   0  0  0  0  0  0  0  0  0  0  0  0
   -8.8627    2.8792   -5.9580 C   0  0  1  0  0  0  0  0  0  0  0  0
   -7.6506    3.4478   -5.2070 C   0  0  0  0  0  0  0  0  0  0  0  0
   -7.9181    4.5280   -4.1804 C   0  0  2  0  0  0  0  0  0  0  0  0
   -6.8018    4.6503   -3.4034 F   0  0  0  0  0  0  0  0  0  0  0  0
   -9.0854    4.1233   -3.3164 C   0  0  0  0  0  0  0  0  0  0  0  0
  -10.2425    3.8284   -4.1182 N   0  0  0  0  0  0  0  0  0  0  0  0
  -10.2082    3.0697   -5.2548 C   0  0  0  0  0  0  0  0  0  0  0  0
  -11.2675    2.6262   -5.6938 O   0  0  0  0  0  0  0  0  0  0  0  0
   -8.7394    4.7184   -7.6030 C   0  0  0  0  0  0  0  0  0  0  0  0
   -8.7283    5.6821   -6.8619 O   0  0  0  0  0  0  0  0  0  0  0  0
   -6.1983    5.1093  -16.1218 C   0  0  0  0  0  0  0  0  0  0  0  0
   -2.7324    5.4132  -18.7360 O   0  0  0  0  0  0  0  0  0  0  0  0
   -1.3786    5.8200  -18.4944 C   0  0  0  0  0  0  0  0  0  0  0  0
   -1.2345    7.2713  -18.8727 C   0  0  0  0  0  0  0  0  0  0  0  0
   -0.4399    7.6396  -19.9650 C   0  0  0  0  0  0  0  0  0  0  0  0
   -0.3222    8.9804  -20.3316 C   0  0  0  0  0  0  0  0  0  0  0  0
   -0.9999    9.9642  -19.6134 C   0  0  0  0  0  0  0  0  0  0  0  0
   -1.7882    9.6105  -18.5207 C   0  0  0  0  0  0  0  0  0  0  0  0
   -1.9001    8.2714  -18.1473 C   0  0  0  0  0  0  0  0  0  0  0  0
  1  2  2  0
  2  3  1  0
  3  4  1  0
  4  5  2  0
  5  6  1  0
  6  7  1  0
  6  8  2  0
  8  9  1  0
  9 10  1  0
 10 11  2  0
 10 12  1  0
 12 13  1  0
 13 14  2  0
 14 15  1  0
 15 16  2  0
 16 17  1  0
 17 18  2  0
 17 19  1  0
 19 20  1  0
 21 20  1  6
 21 22  1  0
 22 23  1  0
 23 24  1  1
 23 25  1  0
 25 26  1  0
 26 27  1  0
 27 28  2  0
 20 29  1  0
 29 30  2  0
  9 31  2  0
  2 32  1  0
 32 33  1  0
 33 34  1  0
 34 35  2  0
 35 36  1  0
 36 37  2  0
 37 38  1  0
 38 39  2  0
 31  4  1  0
 39 34  1  0
 18 13  1  0
 27 21  1  0
 29 16  1  0
M  END
>  <name>  (73) 
P118496

>  <alias>  (73) 
None

>  <smina_score_min>  (73) 
-8.148

>  <exports>  (73) 
['/opt/xchem-fragalysis-2/maxwin/BulkDock/OUTPUTS/openbind_xx01zvns2b_c2_elabs_1LOUTNY.sdf', '/opt/xchem-fragalysis-2/maxwin/BulkDock/OUTPUTS/openbind_xx01zvns2b_c2_elabs_1LSYIIV.sdf', '/opt/xchem-fragalysis-2/maxwin/openbind-hippo/xx01zvns2b/cycle_02/gnina/openbind_xx01zvns2b_c2_elabs_scored_6.2plus_products.sdf']

>  <tags>  (73) 
syndirella_placed,openbind_xx01zvns2b_c2_elabs,openbind_xx01zvns2b_c2_elabs_scored_6.2plus,syndirella_product,openbind_xx01zvns2b_c2_elabs_scored,openbind_xx01zvns2b_c2_elabs_scored_top80percent,BulkDock Fragalysis export,openbind_xx01zvns2b_c2_elabs_scored_top80percent_despaghettified

>  <subsites>  (73) 
1 - Z4590/B/203/1

>  <smiles>  (73) 
O=C(Nc1cc(Cl)cc(C(=O)Nc2ccc3c(c2)CN([C@H]2C[C@H](F)CNC2=O)C3=O)c1)OCc1ccccc1

>  <HIPPO Pose ID>  (73) 
118496

>  <energy_score>  (73) 
-29.808045

>  <inchikey>  (73) 
VTVXUGKOEISXQT-RDPSFJRHSA-N

>  <gnina_score_min>  (73) 
6.203

>  <gnina_score>  (73) 
6.192

>  <ref_mols>  (73) 
Z3059a

>  <HIPPO Compound ID>  (73) 
163176

>  <distance_score>  (73) 
0.683664

>  <rmsd(smina/fragmenstein)>  (73) 
1.089

>  <ref_pdb>  (73) 
Z3059a

>  <inspiration_score>  (73) 
None

$$$$
P118499
     RDKit          3D

 39 43  0  0  0  0  0  0  0  0999 V2000
  -12.2567    2.3618   -4.2924 O   0  0  0  0  0  0  0  0  0  0  0  0
  -11.2493    2.6757   -4.9068 C   0  0  0  0  0  0  0  0  0  0  0  0
  -10.0603    3.3743   -4.2938 C   0  0  0  0  0  0  0  0  0  0  0  0
   -9.1364    3.8444   -5.3763 C   0  0  0  0  0  0  0  0  0  0  0  0
   -8.8196    2.7088   -6.3633 C   0  0  2  0  0  0  0  0  0  0  0  0
   -8.4885    3.2584   -7.6600 N   0  0  0  0  0  0  0  0  0  0  0  0
   -8.6478    2.4986   -8.9015 C   0  0  0  0  0  0  0  0  0  0  0  0
   -8.1874    3.4886   -9.9058 C   0  0  0  0  0  0  0  0  0  0  0  0
   -8.2255    3.4296  -11.2789 C   0  0  0  0  0  0  0  0  0  0  0  0
   -7.7572    4.5459  -11.9719 C   0  0  0  0  0  0  0  0  0  0  0  0
   -7.7120    4.4985  -13.3498 N   0  0  0  0  0  0  0  0  0  0  0  0
   -7.2408    5.5464  -14.3698 C   0  0  0  0  0  0  0  0  0  0  0  0
   -6.8873    6.6458  -14.2152 O   0  0  0  0  0  0  0  0  0  0  0  0
   -7.2932    5.0061  -15.7308 C   0  0  0  0  0  0  0  0  0  0  0  0
   -8.4885    4.5249  -16.2493 C   0  0  0  0  0  0  0  0  0  0  0  0
   -8.5380    4.2201  -17.6004 C   0  0  0  0  0  0  0  0  0  0  0  0
  -10.0351    3.7657  -18.2829 Cl  0  0  0  0  0  0  0  0  0  0  0  0
   -7.4151    4.3618  -18.4137 C   0  0  0  0  0  0  0  0  0  0  0  0
   -6.2170    4.8070  -17.8647 C   0  0  0  0  0  0  0  0  0  0  0  0
   -5.1035    4.9729  -18.6715 N   0  0  0  0  0  0  0  0  0  0  0  0
   -3.6418    5.2217  -18.3068 C   0  0  0  0  0  0  0  0  0  0  0  0
   -3.1187    5.2520  -17.2702 O   0  0  0  0  0  0  0  0  0  0  0  0
   -3.0185    5.4685  -19.4872 O   0  0  0  0  0  0  0  0  0  0  0  0
   -1.6253    5.7960  -19.3805 C   0  0  0  0  0  0  0  0  0  0  0  0
   -1.3920    7.2899  -19.3402 C   0  0  0  0  0  0  0  0  0  0  0  0
   -0.3552    7.8340  -20.1122 C   0  0  0  0  0  0  0  0  0  0  0  0
   -0.1119    9.2072  -20.1135 C   0  0  0  0  0  0  0  0  0  0  0  0
   -0.8924   10.0541  -19.3312 C   0  0  0  0  0  0  0  0  0  0  0  0
   -1.9036    9.5265  -18.5331 C   0  0  0  0  0  0  0  0  0  0  0  0
   -2.1458    8.1518  -18.5296 C   0  0  0  0  0  0  0  0  0  0  0  0
   -6.1515    5.1273  -16.5158 C   0  0  0  0  0  0  0  0  0  0  0  0
   -7.2954    5.6957  -11.3010 C   0  0  0  0  0  0  0  0  0  0  0  0
   -7.2468    5.7386   -9.9180 C   0  0  0  0  0  0  0  0  0  0  0  0
   -7.6811    4.6154   -9.2621 C   0  0  0  0  0  0  0  0  0  0  0  0
   -7.7521    4.4064   -7.8304 C   0  0  0  0  0  0  0  0  0  0  0  0
   -7.2689    5.1643   -7.0101 O   0  0  0  0  0  0  0  0  0  0  0  0
  -10.0182    1.7916   -6.5760 C   0  0  0  0  0  0  0  0  0  0  0  0
  -10.0055    0.7231   -7.1743 O   0  0  0  0  0  0  0  0  0  0  0  0
  -11.1839    2.3547   -6.2021 N   0  0  0  0  0  0  0  0  0  0  0  0
  1  2  2  0
  2  3  1  0
  3  4  1  0
  4  5  1  0
  5  6  1  6
  6  7  1  0
  7  8  1  0
  8  9  2  0
  9 10  1  0
 10 11  1  0
 11 12  1  0
 12 13  2  0
 12 14  1  0
 14 15  2  0
 15 16  1  0
 16 17  1  0
 16 18  2  0
 18 19  1  0
 19 20  1  0
 20 21  1  0
 21 22  2  0
 21 23  1  0
 23 24  1  0
 24 25  1  0
 25 26  2  0
 26 27  1  0
 27 28  2  0
 28 29  1  0
 29 30  2  0
 19 31  2  0
 10 32  2  0
 32 33  1  0
 33 34  2  0
 34 35  1  0
 35 36  2  0
  5 37  1  0
 37 38  2  0
 37 39  1  0
 39  2  1  0
 35  6  1  0
 34  8  1  0
 31 14  1  0
 30 25  1  0
M  END
>  <name>  (74) 
P118499

>  <alias>  (74) 
None

>  <smina_score_min>  (74) 
-8.447

>  <exports>  (74) 
['/opt/xchem-fragalysis-2/maxwin/BulkDock/OUTPUTS/openbind_xx01zvns2b_c2_elabs_1LOUTNY.sdf', '/opt/xchem-fragalysis-2/maxwin/BulkDock/OUTPUTS/openbind_xx01zvns2b_c2_elabs_1LSYIIV.sdf', '/opt/xchem-fragalysis-2/maxwin/openbind-hippo/xx01zvns2b/cycle_02/gnina/openbind_xx01zvns2b_c2_elabs_scored_6.2plus_products.sdf']

>  <tags>  (74) 
syndirella_placed,openbind_xx01zvns2b_c2_elabs,openbind_xx01zvns2b_c2_elabs_scored_6.2plus,syndirella_product,openbind_xx01zvns2b_c2_elabs_scored,openbind_xx01zvns2b_c2_elabs_scored_top80percent,BulkDock Fragalysis export,openbind_xx01zvns2b_c2_elabs_scored_top80percent_despaghettified

>  <subsites>  (74) 
1 - Z4590/B/203/1

>  <smiles>  (74) 
O=C1CC[C@H](N2Cc3cc(NC(=O)c4cc(Cl)cc(NC(=O)OCc5ccccc5)c4)ccc3C2=O)C(=O)N1

>  <HIPPO Pose ID>  (74) 
118499

>  <energy_score>  (74) 
-46.213073

>  <inchikey>  (74) 
ZOORRUBXNGRBQJ-QHCPKHFHSA-N

>  <gnina_score_min>  (74) 
6.525

>  <gnina_score>  (74) 
6.415

>  <ref_mols>  (74) 
Z3059a

>  <HIPPO Compound ID>  (74) 
182313

>  <distance_score>  (74) 
0.971651

>  <rmsd(smina/fragmenstein)>  (74) 
1.926

>  <ref_pdb>  (74) 
Z3059a

>  <inspiration_score>  (74) 
None

$$$$
P118509
     RDKit          3D

 40 44  0  0  0  0  0  0  0  0999 V2000
  -12.4193    1.8866   -5.0994 O   0  0  0  0  0  0  0  0  0  0  0  0
  -11.4260    2.2742   -5.6942 C   0  0  0  0  0  0  0  0  0  0  0  0
  -10.1300    1.5813   -5.7326 C   0  0  0  0  0  0  0  0  0  0  0  0
   -9.0195    2.5620   -5.3816 C   0  0  0  0  0  0  0  0  0  0  0  0
   -9.0864    3.8942   -6.0313 C   0  0  1  0  0  0  0  0  0  0  0  0
   -8.5470    3.9487   -7.3631 N   0  0  0  0  0  0  0  0  0  0  0  0
   -7.7261    4.9826   -7.6799 C   0  0  0  0  0  0  0  0  0  0  0  0
   -7.1995    5.8120   -6.9616 O   0  0  0  0  0  0  0  0  0  0  0  0
   -7.5892    4.9564   -9.1121 C   0  0  0  0  0  0  0  0  0  0  0  0
   -6.9917    5.9007   -9.8986 C   0  0  0  0  0  0  0  0  0  0  0  0
   -7.0830    5.6933  -11.2616 C   0  0  0  0  0  0  0  0  0  0  0  0
   -7.7405    4.5630  -11.8004 C   0  0  0  0  0  0  0  0  0  0  0  0
   -7.7622    4.4425  -13.1808 N   0  0  0  0  0  0  0  0  0  0  0  0
   -7.2629    5.4048  -14.2787 C   0  0  0  0  0  0  0  0  0  0  0  0
   -6.8248    6.4840  -14.1973 O   0  0  0  0  0  0  0  0  0  0  0  0
   -7.3653    4.8384  -15.6274 C   0  0  0  0  0  0  0  0  0  0  0  0
   -8.5858    4.4264  -16.1420 C   0  0  0  0  0  0  0  0  0  0  0  0
   -8.6718    4.1912  -17.5085 C   0  0  0  0  0  0  0  0  0  0  0  0
  -10.2001    3.8546  -18.1964 Cl  0  0  0  0  0  0  0  0  0  0  0  0
   -7.5615    4.3313  -18.3413 C   0  0  0  0  0  0  0  0  0  0  0  0
   -6.3380    4.7094  -17.8017 C   0  0  0  0  0  0  0  0  0  0  0  0
   -5.2382    4.8830  -18.6291 N   0  0  0  0  0  0  0  0  0  0  0  0
   -3.7772    5.1780  -18.2906 C   0  0  0  0  0  0  0  0  0  0  0  0
   -3.2412    5.2479  -17.2619 O   0  0  0  0  0  0  0  0  0  0  0  0
   -3.1753    5.4273  -19.4827 O   0  0  0  0  0  0  0  0  0  0  0  0
   -1.7729    5.7286  -19.4041 C   0  0  0  0  0  0  0  0  0  0  0  0
   -1.4947    7.2155  -19.3589 C   0  0  0  0  0  0  0  0  0  0  0  0
   -2.2563    8.1078  -18.5897 C   0  0  0  0  0  0  0  0  0  0  0  0
   -1.9633    9.4730  -18.5828 C   0  0  0  0  0  0  0  0  0  0  0  0
   -0.8948    9.9610  -19.3298 C   0  0  0  0  0  0  0  0  0  0  0  0
   -0.1074    9.0833  -20.0702 C   0  0  0  0  0  0  0  0  0  0  0  0
   -0.4002    7.7194  -20.0778 C   0  0  0  0  0  0  0  0  0  0  0  0
   -6.2369    4.9558  -16.4399 C   0  0  0  0  0  0  0  0  0  0  0  0
   -8.3420    3.6123  -10.9714 C   0  0  0  0  0  0  0  0  0  0  0  0
   -8.2605    3.8557   -9.6128 C   0  0  0  0  0  0  0  0  0  0  0  0
   -8.9080    3.2178   -8.4703 C   0  0  0  0  0  0  0  0  0  0  0  0
   -9.7131    2.3189   -8.5952 O   0  0  0  0  0  0  0  0  0  0  0  0
  -10.4960    4.4037   -6.0555 C   0  0  0  0  0  0  0  0  0  0  0  0
  -10.7829    5.5919   -5.9419 O   0  0  0  0  0  0  0  0  0  0  0  0
  -11.4204    3.4413   -6.3638 N   0  0  0  0  0  0  0  0  0  0  0  0
  1  2  2  0
  2  3  1  0
  3  4  1  0
  4  5  1  0
  5  6  1  6
  6  7  1  0
  7  8  2  0
  7  9  1  0
  9 10  2  0
 10 11  1  0
 11 12  2  0
 12 13  1  0
 13 14  1  0
 14 15  2  0
 14 16  1  0
 16 17  2  0
 17 18  1  0
 18 19  1  0
 18 20  2  0
 20 21  1  0
 21 22  1  0
 22 23  1  0
 23 24  2  0
 23 25  1  0
 25 26  1  0
 26 27  1  0
 27 28  2  0
 28 29  1  0
 29 30  2  0
 30 31  1  0
 31 32  2  0
 21 33  2  0
 12 34  1  0
 34 35  2  0
 35 36  1  0
 36 37  2  0
  5 38  1  0
 38 39  2  0
 38 40  1  0
 40  2  1  0
 36  6  1  0
 35  9  1  0
 33 16  1  0
 32 27  1  0
M  END
>  <name>  (75) 
P118509

>  <alias>  (75) 
None

>  <smina_score_min>  (75) 
-7.057

>  <exports>  (75) 
['/opt/xchem-fragalysis-2/maxwin/BulkDock/OUTPUTS/openbind_xx01zvns2b_c2_elabs_1LOUTNY.sdf', '/opt/xchem-fragalysis-2/maxwin/BulkDock/OUTPUTS/openbind_xx01zvns2b_c2_elabs_1LSYIIV.sdf', '/opt/xchem-fragalysis-2/maxwin/openbind-hippo/xx01zvns2b/cycle_02/gnina/openbind_xx01zvns2b_c2_elabs_scored_6.2plus_products.sdf']

>  <tags>  (75) 
syndirella_placed,openbind_xx01zvns2b_c2_elabs,openbind_xx01zvns2b_c2_elabs_scored_6.2plus,syndirella_product,openbind_xx01zvns2b_c2_elabs_scored,openbind_xx01zvns2b_c2_elabs_scored_top80percent,BulkDock Fragalysis export,openbind_xx01zvns2b_c2_elabs_scored_top80percent_despaghettified

>  <subsites>  (75) 
1 - Z4590/B/203/1

>  <smiles>  (75) 
O=C1CC[C@@H](N2C(=O)c3ccc(NC(=O)c4cc(Cl)cc(NC(=O)OCc5ccccc5)c4)cc3C2=O)C(=O)N1

>  <HIPPO Pose ID>  (75) 
118509

>  <energy_score>  (75) 
-6.651542

>  <inchikey>  (75) 
HCJSGFNTXPBMNO-JOCHJYFZSA-N

>  <gnina_score_min>  (75) 
6.338

>  <gnina_score>  (75) 
6.449

>  <ref_mols>  (75) 
Z3059a

>  <HIPPO Compound ID>  (75) 
182315

>  <distance_score>  (75) 
1.031586

>  <rmsd(smina/fragmenstein)>  (75) 
1.047

>  <ref_pdb>  (75) 
Z3059a

>  <inspiration_score>  (75) 
None

$$$$
P118511
     RDKit          3D

 40 44  0  0  0  0  0  0  0  0999 V2000
   -7.5459    5.2175   -2.8808 C   0  0  0  0  0  0  0  0  0  0  0  0
   -8.3949    4.7602   -3.9623 N   0  0  0  0  0  0  0  0  0  0  0  0
   -9.3714    5.6499   -4.3960 C   0  0  0  0  0  0  0  0  0  0  0  0
   -9.5537    6.7584   -3.8884 O   0  0  0  0  0  0  0  0  0  0  0  0
  -10.2081    5.2054   -5.5723 C   0  0  0  0  0  0  0  0  0  0  0  0
  -10.2586    3.6909   -5.6278 C   0  0  0  0  0  0  0  0  0  0  0  0
   -8.8522    3.1568   -5.8480 C   0  0  1  0  0  0  0  0  0  0  0  0
   -8.3700    3.4241   -7.1929 N   0  0  0  0  0  0  0  0  0  0  0  0
   -8.7660    2.6278   -8.3666 C   0  0  0  0  0  0  0  0  0  0  0  0
   -8.3712    3.5262   -9.5010 C   0  0  0  0  0  0  0  0  0  0  0  0
   -8.4438    3.3733  -10.8778 C   0  0  0  0  0  0  0  0  0  0  0  0
   -8.0399    4.4605  -11.6720 C   0  0  0  0  0  0  0  0  0  0  0  0
   -7.9870    4.3759  -13.0570 N   0  0  0  0  0  0  0  0  0  0  0  0
   -7.5904    5.4315  -14.1116 C   0  0  0  0  0  0  0  0  0  0  0  0
   -7.3201    6.5608  -13.9880 O   0  0  0  0  0  0  0  0  0  0  0  0
   -7.4952    4.8796  -15.4646 C   0  0  0  0  0  0  0  0  0  0  0  0
   -8.6229    4.4176  -16.1209 C   0  0  0  0  0  0  0  0  0  0  0  0
   -8.5341    4.1891  -17.4877 C   0  0  0  0  0  0  0  0  0  0  0  0
   -9.9527    3.7592  -18.3354 Cl  0  0  0  0  0  0  0  0  0  0  0  0
   -7.3378    4.3762  -18.1834 C   0  0  0  0  0  0  0  0  0  0  0  0
   -6.1990    4.7821  -17.4940 C   0  0  0  0  0  0  0  0  0  0  0  0
   -4.9909    4.9161  -18.1661 N   0  0  0  0  0  0  0  0  0  0  0  0
   -3.6080    5.3178  -17.6534 C   0  0  0  0  0  0  0  0  0  0  0  0
   -3.2367    5.5280  -16.5725 O   0  0  0  0  0  0  0  0  0  0  0  0
   -2.8245    5.3998  -18.7601 O   0  0  0  0  0  0  0  0  0  0  0  0
   -1.4674    5.7989  -18.5195 C   0  0  0  0  0  0  0  0  0  0  0  0
   -1.2996    7.2485  -18.8959 C   0  0  0  0  0  0  0  0  0  0  0  0
   -1.9541    8.2591  -18.1752 C   0  0  0  0  0  0  0  0  0  0  0  0
   -1.8120    9.5972  -18.5425 C   0  0  0  0  0  0  0  0  0  0  0  0
   -1.0042    9.9396  -19.6243 C   0  0  0  0  0  0  0  0  0  0  0  0
   -0.3367    8.9454  -20.3376 C   0  0  0  0  0  0  0  0  0  0  0  0
   -0.4842    7.6058  -19.9767 C   0  0  0  0  0  0  0  0  0  0  0  0
   -6.2807    5.0448  -16.1326 C   0  0  0  0  0  0  0  0  0  0  0  0
   -7.6096    5.6708  -11.0900 C   0  0  0  0  0  0  0  0  0  0  0  0
   -7.5120    5.8105   -9.7227 C   0  0  0  0  0  0  0  0  0  0  0  0
   -7.8733    4.7186   -8.9778 C   0  0  0  0  0  0  0  0  0  0  0  0
   -7.8396    4.6432   -7.5377 C   0  0  0  0  0  0  0  0  0  0  0  0
   -7.4569    5.5516   -6.8234 O   0  0  0  0  0  0  0  0  0  0  0  0
   -7.8897    3.7288   -4.7628 C   0  0  0  0  0  0  0  0  0  0  0  0
   -6.7014    3.3995   -4.6754 O   0  0  0  0  0  0  0  0  0  0  0  0
  1  2  1  0
  2  3  1  0
  3  4  2  0
  3  5  1  0
  5  6  1  0
  6  7  1  0
  7  8  1  6
  8  9  1  0
  9 10  1  0
 10 11  2  0
 11 12  1  0
 12 13  1  0
 13 14  1  0
 14 15  2  0
 14 16  1  0
 16 17  2  0
 17 18  1  0
 18 19  1  0
 18 20  2  0
 20 21  1  0
 21 22  1  0
 22 23  1  0
 23 24  2  0
 23 25  1  0
 25 26  1  0
 26 27  1  0
 27 28  2  0
 28 29  1  0
 29 30  2  0
 30 31  1  0
 31 32  2  0
 21 33  2  0
 12 34  2  0
 34 35  1  0
 35 36  2  0
 36 37  1  0
 37 38  2  0
  7 39  1  0
 39 40  2  0
 39  2  1  0
 37  8  1  0
 36 10  1  0
 33 16  1  0
 32 27  1  0
M  END
>  <name>  (76) 
P118511

>  <alias>  (76) 
None

>  <smina_score_min>  (76) 
-8.377

>  <exports>  (76) 
['/opt/xchem-fragalysis-2/maxwin/BulkDock/OUTPUTS/openbind_xx01zvns2b_c2_elabs_1LOUTNY.sdf', '/opt/xchem-fragalysis-2/maxwin/BulkDock/OUTPUTS/openbind_xx01zvns2b_c2_elabs_1LSYIIV.sdf', '/opt/xchem-fragalysis-2/maxwin/openbind-hippo/xx01zvns2b/cycle_02/gnina/openbind_xx01zvns2b_c2_elabs_scored_6.2plus_products.sdf']

>  <tags>  (76) 
syndirella_placed,openbind_xx01zvns2b_c2_elabs,openbind_xx01zvns2b_c2_elabs_scored_6.2plus,syndirella_product,openbind_xx01zvns2b_c2_elabs_scored,openbind_xx01zvns2b_c2_elabs_scored_top80percent,BulkDock Fragalysis export,openbind_xx01zvns2b_c2_elabs_scored_top80percent_despaghettified

>  <subsites>  (76) 
1 - Z4590/B/203/1

>  <smiles>  (76) 
CN1C(=O)CC[C@@H](N2Cc3cc(NC(=O)c4cc(Cl)cc(NC(=O)OCc5ccccc5)c4)ccc3C2=O)C1=O

>  <HIPPO Pose ID>  (76) 
118511

>  <energy_score>  (76) 
-43.958268

>  <inchikey>  (76) 
VODJJSXQLJWJAE-XMMPIXPASA-N

>  <gnina_score_min>  (76) 
6.274

>  <gnina_score>  (76) 
6.259

>  <ref_mols>  (76) 
Z3059a

>  <HIPPO Compound ID>  (76) 
182316

>  <distance_score>  (76) 
0.728026

>  <rmsd(smina/fragmenstein)>  (76) 
1.075

>  <ref_pdb>  (76) 
Z3059a

>  <inspiration_score>  (76) 
None

$$$$
P118512
     RDKit          3D

 40 44  0  0  0  0  0  0  0  0999 V2000
   -9.0979    7.2442   -4.1588 C   0  0  0  0  0  0  0  0  0  0  0  0
   -9.1962    5.8291   -4.4673 N   0  0  0  0  0  0  0  0  0  0  0  0
   -8.2189    4.9976   -3.9438 C   0  0  0  0  0  0  0  0  0  0  0  0
   -7.1930    5.4210   -3.4082 O   0  0  0  0  0  0  0  0  0  0  0  0
   -8.4281    3.5149   -4.1070 C   0  0  0  0  0  0  0  0  0  0  0  0
   -9.7318    3.1538   -4.7858 C   0  0  0  0  0  0  0  0  0  0  0  0
   -9.9529    4.0058   -6.0009 C   0  0  2  0  0  0  0  0  0  0  0  0
   -8.9747    3.7988   -7.0715 N   0  0  0  0  0  0  0  0  0  0  0  0
   -7.8871    4.7192   -7.2894 C   0  0  0  0  0  0  0  0  0  0  0  0
   -7.7280    4.6860   -8.7555 C   0  0  0  0  0  0  0  0  0  0  0  0
   -7.0705    5.6122   -9.5253 C   0  0  0  0  0  0  0  0  0  0  0  0
   -7.1650    5.4738  -10.8989 C   0  0  0  0  0  0  0  0  0  0  0  0
   -7.8631    4.4036  -11.4947 C   0  0  0  0  0  0  0  0  0  0  0  0
   -7.8845    4.3706  -12.8900 N   0  0  0  0  0  0  0  0  0  0  0  0
   -7.3567    5.3928  -13.9293 C   0  0  0  0  0  0  0  0  0  0  0  0
   -6.8918    6.4558  -13.7787 O   0  0  0  0  0  0  0  0  0  0  0  0
   -7.3587    4.8935  -15.3164 C   0  0  0  0  0  0  0  0  0  0  0  0
   -8.5117    4.4415  -15.9442 C   0  0  0  0  0  0  0  0  0  0  0  0
   -8.4670    4.2147  -17.3190 C   0  0  0  0  0  0  0  0  0  0  0  0
   -9.9003    3.7698  -18.1478 Cl  0  0  0  0  0  0  0  0  0  0  0  0
   -7.2909    4.3992  -18.0518 C   0  0  0  0  0  0  0  0  0  0  0  0
   -6.1291    4.8037  -17.4009 C   0  0  0  0  0  0  0  0  0  0  0  0
   -4.9404    4.9123  -18.1152 N   0  0  0  0  0  0  0  0  0  0  0  0
   -3.5062    5.1888  -17.6326 C   0  0  0  0  0  0  0  0  0  0  0  0
   -3.1034    5.4455  -16.5708 O   0  0  0  0  0  0  0  0  0  0  0  0
   -2.6508    5.0084  -18.6762 O   0  0  0  0  0  0  0  0  0  0  0  0
   -2.7416    5.9624  -19.7356 C   0  0  0  0  0  0  0  0  0  0  0  0
   -1.9869    7.2297  -19.4248 C   0  0  0  0  0  0  0  0  0  0  0  0
   -0.6581    7.3839  -19.8401 C   0  0  0  0  0  0  0  0  0  0  0  0
    0.0072    8.5923  -19.6336 C   0  0  0  0  0  0  0  0  0  0  0  0
   -0.6410    9.6462  -18.9913 C   0  0  0  0  0  0  0  0  0  0  0  0
   -1.9467    9.4871  -18.5328 C   0  0  0  0  0  0  0  0  0  0  0  0
   -2.6160    8.2823  -18.7435 C   0  0  0  0  0  0  0  0  0  0  0  0
   -6.1698    5.0685  -16.0386 C   0  0  0  0  0  0  0  0  0  0  0  0
   -8.4990    3.4414  -10.6979 C   0  0  0  0  0  0  0  0  0  0  0  0
   -8.4404    3.6305   -9.3201 C   0  0  0  0  0  0  0  0  0  0  0  0
   -9.2280    3.0301   -8.2185 C   0  0  0  0  0  0  0  0  0  0  0  0
  -10.0476    2.1455   -8.3528 O   0  0  0  0  0  0  0  0  0  0  0  0
  -10.0437    5.4668   -5.5189 C   0  0  0  0  0  0  0  0  0  0  0  0
  -10.7197    6.3046   -6.1166 O   0  0  0  0  0  0  0  0  0  0  0  0
  1  2  1  0
  2  3  1  0
  3  4  2  0
  3  5  1  0
  5  6  1  0
  6  7  1  0
  7  8  1  6
  8  9  1  0
  9 10  1  0
 10 11  2  0
 11 12  1  0
 12 13  2  0
 13 14  1  0
 14 15  1  0
 15 16  2  0
 15 17  1  0
 17 18  2  0
 18 19  1  0
 19 20  1  0
 19 21  2  0
 21 22  1  0
 22 23  1  0
 23 24  1  0
 24 25  2  0
 24 26  1  0
 26 27  1  0
 27 28  1  0
 28 29  2  0
 29 30  1  0
 30 31  2  0
 31 32  1  0
 32 33  2  0
 22 34  2  0
 13 35  1  0
 35 36  2  0
 36 37  1  0
 37 38  2  0
  7 39  1  0
 39 40  2  0
 39  2  1  0
 37  8  1  0
 36 10  1  0
 34 17  1  0
 33 28  1  0
M  END
>  <name>  (77) 
P118512

>  <alias>  (77) 
None

>  <smina_score_min>  (77) 
-8.626

>  <exports>  (77) 
['/opt/xchem-fragalysis-2/maxwin/BulkDock/OUTPUTS/openbind_xx01zvns2b_c2_elabs_1LOUTNY.sdf', '/opt/xchem-fragalysis-2/maxwin/BulkDock/OUTPUTS/openbind_xx01zvns2b_c2_elabs_1LSYIIV.sdf', '/opt/xchem-fragalysis-2/maxwin/openbind-hippo/xx01zvns2b/cycle_02/gnina/openbind_xx01zvns2b_c2_elabs_scored_6.2plus_products.sdf']

>  <tags>  (77) 
syndirella_placed,openbind_xx01zvns2b_c2_elabs,openbind_xx01zvns2b_c2_elabs_scored_6.2plus,syndirella_product,openbind_xx01zvns2b_c2_elabs_scored,openbind_xx01zvns2b_c2_elabs_scored_top80percent,BulkDock Fragalysis export,openbind_xx01zvns2b_c2_elabs_scored_top80percent_despaghettified

>  <subsites>  (77) 
1 - Z4590/B/203/1

>  <smiles>  (77) 
CN1C(=O)CC[C@H](N2Cc3ccc(NC(=O)c4cc(Cl)cc(NC(=O)OCc5ccccc5)c4)cc3C2=O)C1=O

>  <HIPPO Pose ID>  (77) 
118512

>  <energy_score>  (77) 
-31.008602

>  <inchikey>  (77) 
ZCVABMDVUGMUSE-DEOSSOPVSA-N

>  <gnina_score_min>  (77) 
6.397

>  <gnina_score>  (77) 
6.167

>  <ref_mols>  (77) 
Z3059a

>  <HIPPO Compound ID>  (77) 
182317

>  <distance_score>  (77) 
0.89101

>  <rmsd(smina/fragmenstein)>  (77) 
1.721

>  <ref_pdb>  (77) 
Z3059a

>  <inspiration_score>  (77) 
None

$$$$
P118696
     RDKit          3D

 37 42  0  0  0  0  0  0  0  0999 V2000
   -8.7859    3.9199   -1.7216 O   0  0  0  0  0  0  0  0  0  0  0  0
   -8.6788    3.9283   -2.9459 C   0  0  0  0  0  0  0  0  0  0  0  0
   -7.3304    4.0020   -3.6217 C   0  0  0  0  0  0  0  0  0  0  0  0
   -7.4509    4.3745   -5.0704 C   0  0  0  0  0  0  0  0  0  0  0  0
   -8.4253    3.4108   -5.7709 C   0  0  2  0  0  0  0  0  0  0  0  0
   -8.5298    3.7133   -7.1723 N   0  0  0  0  0  0  0  0  0  0  0  0
   -8.6150    4.9959   -7.5964 C   0  0  0  0  0  0  0  0  0  0  0  0
   -8.7457    6.0378   -6.9814 O   0  0  0  0  0  0  0  0  0  0  0  0
   -8.5101    4.9454   -9.0208 C   0  0  0  0  0  0  0  0  0  0  0  0
   -8.3660    6.0256   -9.8415 C   0  0  0  0  0  0  0  0  0  0  0  0
   -8.2718    5.7284  -11.1777 C   0  0  0  0  0  0  0  0  0  0  0  0
   -8.3266    4.3938  -11.6547 C   0  0  0  0  0  0  0  0  0  0  0  0
   -8.2070    4.2509  -13.0272 N   0  0  0  0  0  0  0  0  0  0  0  0
   -8.0012    5.3051  -14.1263 C   0  0  0  0  0  0  0  0  0  0  0  0
   -7.9761    6.4692  -14.0624 O   0  0  0  0  0  0  0  0  0  0  0  0
   -7.6954    4.7361  -15.4344 C   0  0  0  0  0  0  0  0  0  0  0  0
   -8.6859    4.1400  -16.2035 C   0  0  0  0  0  0  0  0  0  0  0  0
   -8.4922    3.9937  -17.5776 C   0  0  0  0  0  0  0  0  0  0  0  0
   -7.2980    4.4922  -18.1187 C   0  0  0  0  0  0  0  0  0  0  0  0
   -6.8921    4.6104  -19.4240 N   0  0  0  0  0  0  0  0  0  0  0  0
   -5.6499    5.1889  -19.4897 C   0  0  0  0  0  0  0  0  0  0  0  0
   -5.2325    5.4774  -18.2091 C   0  0  0  0  0  0  0  0  0  0  0  0
   -3.9656    6.1564  -17.7720 C   0  0  0  0  0  0  0  0  0  0  0  0
   -2.7516    5.2159  -17.8198 C   0  0  0  0  0  0  0  0  0  0  0  0
   -1.4461    5.9589  -18.1025 C   0  0  0  0  0  0  0  0  0  0  0  0
   -1.4303    7.2549  -17.4330 N   0  0  0  0  0  0  0  0  0  0  0  0
   -2.4564    8.1604  -17.9553 C   0  0  0  0  0  0  0  0  0  0  0  0
   -3.6885    7.4547  -18.5301 C   0  0  0  0  0  0  0  0  0  0  0  0
   -6.2785    5.0396  -17.3439 C   0  0  0  0  0  0  0  0  0  0  0  0
   -6.4668    5.1364  -15.9643 C   0  0  0  0  0  0  0  0  0  0  0  0
   -8.4660    3.3082  -10.7811 C   0  0  0  0  0  0  0  0  0  0  0  0
   -8.5527    3.6252   -9.4383 C   0  0  0  0  0  0  0  0  0  0  0  0
   -8.6420    2.8209   -8.2109 C   0  0  0  0  0  0  0  0  0  0  0  0
   -8.7762    1.6168   -8.1885 O   0  0  0  0  0  0  0  0  0  0  0  0
   -9.7878    3.5478   -5.1179 C   0  0  0  0  0  0  0  0  0  0  0  0
  -10.8516    3.4266   -5.7153 O   0  0  0  0  0  0  0  0  0  0  0  0
   -9.7695    3.8172   -3.7674 N   0  0  0  0  0  0  0  0  0  0  0  0
  1  2  2  0
  2  3  1  0
  3  4  1  0
  4  5  1  0
  5  6  1  6
  6  7  1  0
  7  8  2  0
  7  9  1  0
  9 10  2  0
 10 11  1  0
 11 12  2  0
 12 13  1  0
 13 14  1  0
 14 15  2  0
 14 16  1  0
 16 17  2  0
 17 18  1  0
 18 19  2  0
 19 20  1  0
 20 21  1  0
 21 22  2  0
 22 23  1  0
 23 24  1  0
 24 25  1  0
 25 26  1  0
 26 27  1  0
 27 28  1  0
 22 29  1  0
 29 30  2  0
 12 31  1  0
 31 32  2  0
 32 33  1  0
 33 34  2  0
  5 35  1  0
 35 36  2  0
 35 37  1  0
 37  2  1  0
 33  6  1  0
 32  9  1  0
 30 16  1  0
 29 19  1  0
 28 23  1  0
M  END
>  <name>  (78) 
P118696

>  <alias>  (78) 
None

>  <smina_score_min>  (78) 
-11.834

>  <exports>  (78) 
['/opt/xchem-fragalysis-2/maxwin/BulkDock/OUTPUTS/openbind_xx01zvns2b_c2_elabs_1LOUTNY.sdf', '/opt/xchem-fragalysis-2/maxwin/BulkDock/OUTPUTS/openbind_xx01zvns2b_c2_elabs_1LSYIIV.sdf', '/opt/xchem-fragalysis-2/maxwin/openbind-hippo/xx01zvns2b/cycle_02/gnina/openbind_xx01zvns2b_c2_elabs_scored_6.2plus_products.sdf']

>  <tags>  (78) 
syndirella_placed,openbind_xx01zvns2b_c2_elabs,openbind_xx01zvns2b_c2_elabs_scored_6.2plus,syndirella_product,openbind_xx01zvns2b_c2_elabs_scored,openbind_xx01zvns2b_c2_elabs_scored_top80percent,BulkDock Fragalysis export,openbind_xx01zvns2b_c2_elabs_scored_top80percent_despaghettified

>  <subsites>  (78) 
1 - Z4590/B/203/1

>  <smiles>  (78) 
O=C1CC[C@H](N2C(=O)c3ccc(NC(=O)c4ccc5[nH]cc(C6CCNCC6)c5c4)cc3C2=O)C(=O)N1

>  <HIPPO Pose ID>  (78) 
118696

>  <energy_score>  (78) 
-41.650948

>  <inchikey>  (78) 
PPGZGTZJVMTZDX-QFIPXVFZSA-N

>  <gnina_score_min>  (78) 
6.251

>  <gnina_score>  (78) 
6.206

>  <ref_mols>  (78) 
Z3665a

>  <HIPPO Compound ID>  (78) 
183023

>  <distance_score>  (78) 
0.903052

>  <rmsd(smina/fragmenstein)>  (78) 
0.642

>  <ref_pdb>  (78) 
Z3665a

>  <inspiration_score>  (78) 
None

$$$$
P118740
     RDKit          3D

 33 38  0  0  0  0  0  0  0  0999 V2000
   -3.9255    7.5312  -18.9459 C   0  0  0  0  0  0  0  0  0  0  0  0
   -4.2639    6.0574  -18.7867 C   0  0  1  0  0  0  0  0  0  0  0  0
   -3.2866    5.0902  -19.3993 C   0  0  0  0  0  0  0  0  0  0  0  0
   -2.0131    4.6772  -18.7045 C   0  0  0  0  0  0  0  0  0  0  0  0
   -1.9453    5.4940  -19.9631 C   0  0  0  0  0  0  0  0  0  0  0  0
   -4.6275    5.7179  -17.4083 N   0  0  0  0  0  0  0  0  0  0  0  0
   -3.9043    6.1300  -16.3322 N   0  0  0  0  0  0  0  0  0  0  0  0
   -4.7291    5.8886  -15.3013 C   0  0  0  0  0  0  0  0  0  0  0  0
   -5.9589    5.3207  -15.6985 C   0  0  0  0  0  0  0  0  0  0  0  0
   -7.1964    4.9647  -15.1476 C   0  0  0  0  0  0  0  0  0  0  0  0
   -7.4909    5.3884  -13.7692 C   0  0  0  0  0  0  0  0  0  0  0  0
   -7.4076    6.5347  -13.5546 O   0  0  0  0  0  0  0  0  0  0  0  0
   -7.8258    4.2119  -12.8210 N   0  0  0  0  0  0  0  0  0  0  0  0
   -8.0279    4.1900  -11.4373 C   0  0  0  0  0  0  0  0  0  0  0  0
   -7.8659    5.3862  -10.7148 C   0  0  0  0  0  0  0  0  0  0  0  0
   -7.9580    5.4124   -9.3271 C   0  0  0  0  0  0  0  0  0  0  0  0
   -8.2371    4.2293   -8.6784 C   0  0  0  0  0  0  0  0  0  0  0  0
   -8.4472    3.0416   -9.3728 C   0  0  0  0  0  0  0  0  0  0  0  0
   -8.3315    2.9994  -10.7606 C   0  0  0  0  0  0  0  0  0  0  0  0
   -8.7342    1.9496   -8.3782 C   0  0  0  0  0  0  0  0  0  0  0  0
   -8.8628    2.6353   -7.0399 N   0  0  0  0  0  0  0  0  0  0  0  0
  -10.2682    2.7074   -6.6218 C   0  0  0  0  0  0  0  0  0  0  0  0
  -10.7371    1.5498   -5.7621 C   0  0  0  0  0  0  0  0  0  0  0  0
  -10.6191    0.3943   -6.4486 F   0  0  0  0  0  0  0  0  0  0  0  0
  -12.0568    1.7269   -5.4738 F   0  0  0  0  0  0  0  0  0  0  0  0
   -8.2955    3.9838   -7.2146 C   0  0  0  0  0  0  0  0  0  0  0  0
   -8.1936    4.4774  -16.0048 C   0  0  0  0  0  0  0  0  0  0  0  0
   -7.9340    4.3761  -17.3799 C   0  0  0  0  0  0  0  0  0  0  0  0
   -8.9330    3.9424  -18.4180 C   0  0  0  0  0  0  0  0  0  0  0  0
   -9.4516    2.5361  -18.3484 C   0  0  0  0  0  0  0  0  0  0  0  0
  -10.3898    3.6996  -18.1846 C   0  0  0  0  0  0  0  0  0  0  0  0
   -6.7466    4.7164  -17.9143 N   0  0  0  0  0  0  0  0  0  0  0  0
   -5.8336    5.1801  -17.0609 C   0  0  0  0  0  0  0  0  0  0  0  0
  2  1  1  1
  2  3  1  0
  3  4  1  0
  4  5  1  0
  2  6  1  0
  6  7  1  0
  7  8  2  0
  8  9  1  0
  9 10  2  0
 10 11  1  0
 11 12  2  0
 11 13  1  0
 13 14  1  0
 14 15  2  0
 15 16  1  0
 16 17  2  0
 17 18  1  0
 18 19  2  0
 18 20  1  0
 20 21  1  0
 21 22  1  0
 22 23  1  0
 23 24  1  0
 23 25  1  0
 21 26  1  0
 10 27  1  0
 27 28  2  0
 28 29  1  0
 29 30  1  0
 30 31  1  0
 28 32  1  0
 32 33  2  0
  5  3  1  0
 33  6  1  0
 33  9  1  0
 19 14  1  0
 31 29  1  0
 26 17  1  0
M  END
>  <name>  (79) 
P118740

>  <alias>  (79) 
None

>  <smina_score_min>  (79) 
-8.561

>  <exports>  (79) 
['/opt/xchem-fragalysis-2/maxwin/BulkDock/OUTPUTS/openbind_xx01zvns2b_c2_elabs_1LOUTNY.sdf', '/opt/xchem-fragalysis-2/maxwin/BulkDock/OUTPUTS/openbind_xx01zvns2b_c2_elabs_1LSYIIV.sdf', '/opt/xchem-fragalysis-2/maxwin/openbind-hippo/xx01zvns2b/cycle_02/gnina/openbind_xx01zvns2b_c2_elabs_scored_6.2plus_products.sdf']

>  <tags>  (79) 
syndirella_placed,openbind_xx01zvns2b_c2_elabs,openbind_xx01zvns2b_c2_elabs_scored_6.2plus,syndirella_product,openbind_xx01zvns2b_c2_elabs_scored,openbind_xx01zvns2b_c2_elabs_scored_top80percent,BulkDock Fragalysis export,openbind_xx01zvns2b_c2_elabs_scored_top80percent_despaghettified

>  <subsites>  (79) 
1 - Z4590/B/203/1

>  <smiles>  (79) 
C[C@@H](C1CC1)n1ncc2c(C(=O)Nc3ccc4c(c3)CN(CC(F)F)C4)cc(C3CC3)nc21

>  <HIPPO Pose ID>  (79) 
118740

>  <energy_score>  (79) 
-33.221809

>  <inchikey>  (79) 
VPDVXQVICUCDTR-AWEZNQCLSA-N

>  <gnina_score_min>  (79) 
6.643

>  <gnina_score>  (79) 
6.575

>  <ref_mols>  (79) 
Z3468a

>  <HIPPO Compound ID>  (79) 
179716

>  <distance_score>  (79) 
0.66571

>  <rmsd(smina/fragmenstein)>  (79) 
0.419

>  <ref_pdb>  (79) 
Z3468a

>  <inspiration_score>  (79) 
None

$$$$
P118743
     RDKit          3D

 34 39  0  0  0  0  0  0  0  0999 V2000
   -6.6357    4.7393   -2.8862 C   0  0  0  0  0  0  0  0  0  0  0  0
   -7.5259    4.8189   -4.1345 C   0  0  0  0  0  0  0  0  0  0  0  0
   -8.5332    5.9452   -3.9425 C   0  0  0  0  0  0  0  0  0  0  0  0
   -8.1815    3.4484   -4.3978 C   0  0  0  0  0  0  0  0  0  0  0  0
   -9.0734    3.2135   -5.6413 C   0  0  0  0  0  0  0  0  0  0  0  0
   -8.3818    3.5065   -6.8842 N   0  0  0  0  0  0  0  0  0  0  0  0
   -8.4814    4.9098   -7.2619 C   0  0  0  0  0  0  0  0  0  0  0  0
   -8.3326    4.9067   -8.7341 C   0  0  0  0  0  0  0  0  0  0  0  0
   -8.1202    6.0067   -9.5263 C   0  0  0  0  0  0  0  0  0  0  0  0
   -8.0079    5.7920  -10.8849 C   0  0  0  0  0  0  0  0  0  0  0  0
   -8.0878    4.4999  -11.4379 C   0  0  0  0  0  0  0  0  0  0  0  0
   -7.8818    4.3999  -12.8156 N   0  0  0  0  0  0  0  0  0  0  0  0
   -7.5698    5.4923  -13.8671 C   0  0  0  0  0  0  0  0  0  0  0  0
   -7.5127    6.6552  -13.7580 O   0  0  0  0  0  0  0  0  0  0  0  0
   -7.2206    4.9680  -15.1864 C   0  0  0  0  0  0  0  0  0  0  0  0
   -8.2013    4.4762  -16.0537 C   0  0  0  0  0  0  0  0  0  0  0  0
   -7.9025    4.3314  -17.4147 C   0  0  0  0  0  0  0  0  0  0  0  0
   -8.8955    3.9032  -18.4598 C   0  0  0  0  0  0  0  0  0  0  0  0
  -10.3616    3.6939  -18.2377 C   0  0  0  0  0  0  0  0  0  0  0  0
   -9.4450    2.5096  -18.3694 C   0  0  0  0  0  0  0  0  0  0  0  0
   -6.6869    4.6194  -17.9217 N   0  0  0  0  0  0  0  0  0  0  0  0
   -5.7922    5.0921  -17.0512 C   0  0  0  0  0  0  0  0  0  0  0  0
   -5.9608    5.2870  -15.7019 C   0  0  0  0  0  0  0  0  0  0  0  0
   -4.7463    5.8717  -15.2824 C   0  0  0  0  0  0  0  0  0  0  0  0
   -3.8826    6.0634  -16.2906 N   0  0  0  0  0  0  0  0  0  0  0  0
   -4.5595    5.5858  -17.3674 N   0  0  0  0  0  0  0  0  0  0  0  0
   -4.1092    5.7700  -18.7472 C   0  0  1  0  0  0  0  0  0  0  0  0
   -4.7370    7.0271  -19.3555 C   0  0  0  0  0  0  0  0  0  0  0  0
   -2.6155    5.8102  -18.8762 C   0  0  0  0  0  0  0  0  0  0  0  0
   -1.7957    4.5540  -18.8013 C   0  0  0  0  0  0  0  0  0  0  0  0
   -1.9610    5.2636  -20.1183 C   0  0  0  0  0  0  0  0  0  0  0  0
   -8.3283    3.3863  -10.6133 C   0  0  0  0  0  0  0  0  0  0  0  0
   -8.4625    3.6136   -9.2446 C   0  0  0  0  0  0  0  0  0  0  0  0
   -8.7783    2.7036   -8.0815 C   0  0  0  0  0  0  0  0  0  0  0  0
  1  2  1  0
  2  3  1  0
  2  4  1  0
  4  5  1  0
  5  6  1  0
  6  7  1  0
  7  8  1  0
  8  9  2  0
  9 10  1  0
 10 11  2  0
 11 12  1  0
 12 13  1  0
 13 14  2  0
 13 15  1  0
 15 16  2  0
 16 17  1  0
 17 18  1  0
 18 19  1  0
 19 20  1  0
 17 21  2  0
 21 22  1  0
 22 23  2  0
 23 24  1  0
 24 25  2  0
 25 26  1  0
 26 27  1  0
 27 28  1  1
 27 29  1  0
 29 30  1  0
 30 31  1  0
 11 32  1  0
 32 33  2  0
 33 34  1  0
 34  6  1  0
 33  8  1  0
 23 15  1  0
 31 29  1  0
 20 18  1  0
 26 22  1  0
M  END
>  <name>  (80) 
P118743

>  <alias>  (80) 
None

>  <smina_score_min>  (80) 
-7.968

>  <exports>  (80) 
['/opt/xchem-fragalysis-2/maxwin/BulkDock/OUTPUTS/openbind_xx01zvns2b_c2_elabs_1LOUTNY.sdf', '/opt/xchem-fragalysis-2/maxwin/BulkDock/OUTPUTS/openbind_xx01zvns2b_c2_elabs_1LSYIIV.sdf', '/opt/xchem-fragalysis-2/maxwin/openbind-hippo/xx01zvns2b/cycle_02/gnina/openbind_xx01zvns2b_c2_elabs_scored_6.2plus_products.sdf']

>  <tags>  (80) 
syndirella_placed,openbind_xx01zvns2b_c2_elabs,openbind_xx01zvns2b_c2_elabs_scored_6.2plus,syndirella_product,openbind_xx01zvns2b_c2_elabs_scored,openbind_xx01zvns2b_c2_elabs_scored_top80percent,BulkDock Fragalysis export,openbind_xx01zvns2b_c2_elabs_scored_top80percent_despaghettified

>  <subsites>  (80) 
1 - Z4590/B/203/1

>  <smiles>  (80) 
CC(C)CCN1Cc2ccc(NC(=O)c3cc(C4CC4)nc4c3cnn4[C@@H](C)C3CC3)cc2C1

>  <HIPPO Pose ID>  (80) 
118743

>  <energy_score>  (80) 
-45.61473

>  <inchikey>  (80) 
ZCVXZBQYANTIHZ-SFHVURJKSA-N

>  <gnina_score_min>  (80) 
6.656

>  <gnina_score>  (80) 
6.683

>  <ref_mols>  (80) 
Z3468a

>  <HIPPO Compound ID>  (80) 
183026

>  <distance_score>  (80) 
0.890992

>  <rmsd(smina/fragmenstein)>  (80) 
0.876

>  <ref_pdb>  (80) 
Z3468a

>  <inspiration_score>  (80) 
None

$$$$
P118744
     RDKit          3D

 34 39  0  0  0  0  0  0  0  0999 V2000
   -7.9174    4.4660   -3.2619 C   0  0  0  0  0  0  0  0  0  0  0  0
   -7.9252    3.6129   -4.5223 C   0  0  0  0  0  0  0  0  0  0  0  0
   -9.3521    3.1924   -4.8891 C   0  0  0  0  0  0  0  0  0  0  0  0
   -9.4959    2.3385   -6.1515 C   0  0  0  0  0  0  0  0  0  0  0  0
   -8.9629    2.9329   -7.3506 N   0  0  0  0  0  0  0  0  0  0  0  0
   -8.8006    2.1432   -8.5717 C   0  0  0  0  0  0  0  0  0  0  0  0
   -8.4327    3.1871   -9.5760 C   0  0  0  0  0  0  0  0  0  0  0  0
   -8.1237    3.0975  -10.9231 C   0  0  0  0  0  0  0  0  0  0  0  0
   -7.8881    4.2967  -11.6112 C   0  0  0  0  0  0  0  0  0  0  0  0
   -7.5610    4.3059  -12.9598 N   0  0  0  0  0  0  0  0  0  0  0  0
   -7.3605    5.4830  -13.9327 C   0  0  0  0  0  0  0  0  0  0  0  0
   -7.3626    6.6337  -13.7388 O   0  0  0  0  0  0  0  0  0  0  0  0
   -7.0235    5.0495  -15.2821 C   0  0  0  0  0  0  0  0  0  0  0  0
   -7.9786    4.5257  -16.1498 C   0  0  0  0  0  0  0  0  0  0  0  0
   -7.6750    4.4282  -17.5129 C   0  0  0  0  0  0  0  0  0  0  0  0
   -8.6655    3.9286  -18.5405 C   0  0  0  0  0  0  0  0  0  0  0  0
  -10.1518    3.8419  -18.3154 C   0  0  0  0  0  0  0  0  0  0  0  0
   -9.3217    2.5910  -18.3389 C   0  0  0  0  0  0  0  0  0  0  0  0
   -6.4805    4.8244  -18.0211 N   0  0  0  0  0  0  0  0  0  0  0  0
   -5.6008    5.3159  -17.1364 C   0  0  0  0  0  0  0  0  0  0  0  0
   -5.7796    5.4306  -15.7770 C   0  0  0  0  0  0  0  0  0  0  0  0
   -4.5915    6.0136  -15.2974 C   0  0  0  0  0  0  0  0  0  0  0  0
   -3.7234    6.2842  -16.2761 N   0  0  0  0  0  0  0  0  0  0  0  0
   -4.3930    5.9065  -17.3984 N   0  0  0  0  0  0  0  0  0  0  0  0
   -3.8681    6.2822  -18.7081 C   0  0  2  0  0  0  0  0  0  0  0  0
   -4.8630    7.1112  -19.5243 C   0  0  0  0  0  0  0  0  0  0  0  0
   -3.4030    5.0779  -19.4737 C   0  0  0  0  0  0  0  0  0  0  0  0
   -2.2313    5.1692  -20.4156 C   0  0  0  0  0  0  0  0  0  0  0  0
   -2.0912    4.4332  -19.1109 C   0  0  0  0  0  0  0  0  0  0  0  0
   -7.9480    5.5427  -10.9518 C   0  0  0  0  0  0  0  0  0  0  0  0
   -8.2369    5.6263   -9.6053 C   0  0  0  0  0  0  0  0  0  0  0  0
   -8.4758    4.4381   -8.9632 C   0  0  0  0  0  0  0  0  0  0  0  0
   -8.8740    4.2860   -7.5802 C   0  0  0  0  0  0  0  0  0  0  0  0
   -9.0887    5.2408   -6.8553 O   0  0  0  0  0  0  0  0  0  0  0  0
  1  2  1  0
  2  3  1  0
  3  4  1  0
  4  5  1  0
  5  6  1  0
  6  7  1  0
  7  8  2  0
  8  9  1  0
  9 10  1  0
 10 11  1  0
 11 12  2  0
 11 13  1  0
 13 14  2  0
 14 15  1  0
 15 16  1  0
 16 17  1  0
 17 18  1  0
 15 19  2  0
 19 20  1  0
 20 21  2  0
 21 22  1  0
 22 23  2  0
 23 24  1  0
 24 25  1  0
 25 26  1  6
 25 27  1  0
 27 28  1  0
 28 29  1  0
  9 30  2  0
 30 31  1  0
 31 32  2  0
 32 33  1  0
 33 34  2  0
 33  5  1  0
 32  7  1  0
 21 13  1  0
 29 27  1  0
 18 16  1  0
 24 20  1  0
M  END
>  <name>  (81) 
P118744

>  <alias>  (81) 
None

>  <smina_score_min>  (81) 
-8.369

>  <exports>  (81) 
['/opt/xchem-fragalysis-2/maxwin/BulkDock/OUTPUTS/openbind_xx01zvns2b_c2_elabs_1LOUTNY.sdf', '/opt/xchem-fragalysis-2/maxwin/BulkDock/OUTPUTS/openbind_xx01zvns2b_c2_elabs_1LSYIIV.sdf', '/opt/xchem-fragalysis-2/maxwin/openbind-hippo/xx01zvns2b/cycle_02/gnina/openbind_xx01zvns2b_c2_elabs_scored_6.2plus_products.sdf']

>  <tags>  (81) 
syndirella_placed,openbind_xx01zvns2b_c2_elabs,openbind_xx01zvns2b_c2_elabs_scored_6.2plus,syndirella_product,openbind_xx01zvns2b_c2_elabs_scored,openbind_xx01zvns2b_c2_elabs_scored_top80percent,BulkDock Fragalysis export,openbind_xx01zvns2b_c2_elabs_scored_top80percent_despaghettified

>  <subsites>  (81) 
1 - Z4590/B/203/1

>  <smiles>  (81) 
CCCCN1Cc2cc(NC(=O)c3cc(C4CC4)nc4c3cnn4[C@H](C)C3CC3)ccc2C1=O

>  <HIPPO Pose ID>  (81) 
118744

>  <energy_score>  (81) 
-58.979612

>  <inchikey>  (81) 
NXEDJOVJZCTBGT-MRXNPFEDSA-N

>  <gnina_score_min>  (81) 
6.734

>  <gnina_score>  (81) 
6.692

>  <ref_mols>  (81) 
Z3468a

>  <HIPPO Compound ID>  (81) 
183027

>  <distance_score>  (81) 
0.73777

>  <rmsd(smina/fragmenstein)>  (81) 
0.57

>  <ref_pdb>  (81) 
Z3468a

>  <inspiration_score>  (81) 
None

$$$$
P118763
     RDKit          3D

 35 40  0  0  0  0  0  0  0  0999 V2000
   -8.7623    4.9984   -1.0623 C   0  0  0  0  0  0  0  0  0  0  0  0
   -8.3068    4.7913   -2.4927 C   0  0  0  0  0  0  0  0  0  0  0  0
   -9.2384    3.9310   -3.1379 O   0  0  0  0  0  0  0  0  0  0  0  0
   -8.8224    3.5806   -4.4612 C   0  0  0  0  0  0  0  0  0  0  0  0
   -9.9014    2.7367   -5.1443 C   0  0  0  0  0  0  0  0  0  0  0  0
   -9.4262    1.9418   -6.3659 C   0  0  0  0  0  0  0  0  0  0  0  0
   -9.4248    2.7254   -7.5828 N   0  0  0  0  0  0  0  0  0  0  0  0
   -8.6201    3.9435   -7.5357 C   0  0  0  0  0  0  0  0  0  0  0  0
   -8.3196    4.2165   -8.9609 C   0  0  0  0  0  0  0  0  0  0  0  0
   -7.9306    5.4035   -9.5338 C   0  0  0  0  0  0  0  0  0  0  0  0
   -7.7318    5.4056  -10.9051 C   0  0  0  0  0  0  0  0  0  0  0  0
   -7.8906    4.2322  -11.6672 C   0  0  0  0  0  0  0  0  0  0  0  0
   -7.6210    4.2819  -13.0281 N   0  0  0  0  0  0  0  0  0  0  0  0
   -7.2523    5.4729  -13.9320 C   0  0  0  0  0  0  0  0  0  0  0  0
   -7.0410    6.5888  -13.6644 O   0  0  0  0  0  0  0  0  0  0  0  0
   -7.0553    5.0707  -15.3252 C   0  0  0  0  0  0  0  0  0  0  0  0
   -8.0813    4.5527  -16.1242 C   0  0  0  0  0  0  0  0  0  0  0  0
   -7.8680    4.4111  -17.5023 C   0  0  0  0  0  0  0  0  0  0  0  0
   -8.9025    3.9263  -18.4831 C   0  0  0  0  0  0  0  0  0  0  0  0
   -9.4400    2.5352  -18.3129 C   0  0  0  0  0  0  0  0  0  0  0  0
  -10.3545    3.7208  -18.1817 C   0  0  0  0  0  0  0  0  0  0  0  0
   -6.7000    4.7444  -18.0862 N   0  0  0  0  0  0  0  0  0  0  0  0
   -5.7585    5.2300  -17.2753 C   0  0  0  0  0  0  0  0  0  0  0  0
   -5.8380    5.4050  -15.9167 C   0  0  0  0  0  0  0  0  0  0  0  0
   -4.5948    5.9649  -15.5580 C   0  0  0  0  0  0  0  0  0  0  0  0
   -3.8004    6.1788  -16.6152 N   0  0  0  0  0  0  0  0  0  0  0  0
   -4.5602    5.7537  -17.6608 N   0  0  0  0  0  0  0  0  0  0  0  0
   -4.2218    6.0501  -19.0511 C   0  0  1  0  0  0  0  0  0  0  0  0
   -3.8856    7.5186  -19.2542 C   0  0  0  0  0  0  0  0  0  0  0  0
   -3.2493    5.0636  -19.6365 C   0  0  0  0  0  0  0  0  0  0  0  0
   -1.9919    4.6513  -18.9124 C   0  0  0  0  0  0  0  0  0  0  0  0
   -1.8967    5.4427  -20.1859 C   0  0  0  0  0  0  0  0  0  0  0  0
   -8.2744    3.0311  -11.0652 C   0  0  0  0  0  0  0  0  0  0  0  0
   -8.5072    3.0483   -9.7033 C   0  0  0  0  0  0  0  0  0  0  0  0
   -8.9820    1.9689   -8.7765 C   0  0  0  0  0  0  0  0  0  0  0  0
  1  2  1  0
  2  3  1  0
  3  4  1  0
  4  5  1  0
  5  6  1  0
  6  7  1  0
  7  8  1  0
  8  9  1  0
  9 10  2  0
 10 11  1  0
 11 12  2  0
 12 13  1  0
 13 14  1  0
 14 15  2  0
 14 16  1  0
 16 17  2  0
 17 18  1  0
 18 19  1  0
 19 20  1  0
 20 21  1  0
 18 22  2  0
 22 23  1  0
 23 24  2  0
 24 25  1  0
 25 26  2  0
 26 27  1  0
 27 28  1  0
 28 29  1  1
 28 30  1  0
 30 31  1  0
 31 32  1  0
 12 33  1  0
 33 34  2  0
 34 35  1  0
 35  7  1  0
 34  9  1  0
 24 16  1  0
 32 30  1  0
 21 19  1  0
 27 23  1  0
M  END
>  <name>  (82) 
P118763

>  <alias>  (82) 
None

>  <smina_score_min>  (82) 
-8.289

>  <exports>  (82) 
['/opt/xchem-fragalysis-2/maxwin/BulkDock/OUTPUTS/openbind_xx01zvns2b_c2_elabs_1LOUTNY.sdf', '/opt/xchem-fragalysis-2/maxwin/BulkDock/OUTPUTS/openbind_xx01zvns2b_c2_elabs_1LSYIIV.sdf', '/opt/xchem-fragalysis-2/maxwin/openbind-hippo/xx01zvns2b/cycle_02/gnina/openbind_xx01zvns2b_c2_elabs_scored_6.2plus_products.sdf']

>  <tags>  (82) 
syndirella_placed,openbind_xx01zvns2b_c2_elabs,openbind_xx01zvns2b_c2_elabs_scored_6.2plus,syndirella_product,openbind_xx01zvns2b_c2_elabs_scored,openbind_xx01zvns2b_c2_elabs_scored_top80percent,BulkDock Fragalysis export,openbind_xx01zvns2b_c2_elabs_scored_top80percent_despaghettified

>  <subsites>  (82) 
1 - Z4590/B/203/1

>  <smiles>  (82) 
CCOCCCN1Cc2ccc(NC(=O)c3cc(C4CC4)nc4c3cnn4[C@@H](C)C3CC3)cc2C1

>  <HIPPO Pose ID>  (82) 
118763

>  <energy_score>  (82) 
-58.06804

>  <inchikey>  (82) 
YGUKJIURCCRUSA-SFHVURJKSA-N

>  <gnina_score_min>  (82) 
6.909

>  <gnina_score>  (82) 
6.605

>  <ref_mols>  (82) 
Z3468a

>  <HIPPO Compound ID>  (82) 
183038

>  <distance_score>  (82) 
0.759502

>  <rmsd(smina/fragmenstein)>  (82) 
0.994

>  <ref_pdb>  (82) 
Z3468a

>  <inspiration_score>  (82) 
None

$$$$
P118764
     RDKit          3D

 36 41  0  0  0  0  0  0  0  0999 V2000
   -5.2098    6.9007  -19.7036 C   0  0  0  0  0  0  0  0  0  0  0  0
   -4.1336    6.2007  -18.8745 C   0  0  2  0  0  0  0  0  0  0  0  0
   -3.5503    5.0254  -19.6007 C   0  0  0  0  0  0  0  0  0  0  0  0
   -2.3559    5.1939  -20.5055 C   0  0  0  0  0  0  0  0  0  0  0  0
   -2.2033    4.4859  -19.1882 C   0  0  0  0  0  0  0  0  0  0  0  0
   -4.6002    5.8351  -17.5401 N   0  0  0  0  0  0  0  0  0  0  0  0
   -3.8988    6.2937  -16.4663 N   0  0  0  0  0  0  0  0  0  0  0  0
   -4.7194    6.0588  -15.4425 C   0  0  0  0  0  0  0  0  0  0  0  0
   -5.9067    5.4171  -15.8418 C   0  0  0  0  0  0  0  0  0  0  0  0
   -7.1105    5.0276  -15.2590 C   0  0  0  0  0  0  0  0  0  0  0  0
   -7.3695    5.4859  -13.8995 C   0  0  0  0  0  0  0  0  0  0  0  0
   -7.1270    6.6016  -13.6602 O   0  0  0  0  0  0  0  0  0  0  0  0
   -7.8388    4.3470  -12.9777 N   0  0  0  0  0  0  0  0  0  0  0  0
   -8.0112    4.3148  -11.6064 C   0  0  0  0  0  0  0  0  0  0  0  0
   -7.6423    5.4705  -10.8843 C   0  0  0  0  0  0  0  0  0  0  0  0
   -7.7098    5.5108   -9.5078 C   0  0  0  0  0  0  0  0  0  0  0  0
   -8.1988    4.3899   -8.8904 C   0  0  0  0  0  0  0  0  0  0  0  0
   -8.6171    3.2632   -9.5960 C   0  0  0  0  0  0  0  0  0  0  0  0
   -8.4984    3.1771  -10.9653 C   0  0  0  0  0  0  0  0  0  0  0  0
   -9.2163    2.3422   -8.6188 C   0  0  0  0  0  0  0  0  0  0  0  0
   -9.6958    1.2595   -8.8808 O   0  0  0  0  0  0  0  0  0  0  0  0
   -9.1546    2.9882   -7.3883 N   0  0  0  0  0  0  0  0  0  0  0  0
   -9.3483    2.3103   -6.1413 C   0  0  0  0  0  0  0  0  0  0  0  0
   -9.5751    3.2559   -4.9495 C   0  0  0  0  0  0  0  0  0  0  0  0
   -8.3739    3.8678   -4.1533 C   0  0  0  0  0  0  0  0  0  0  0  0
   -8.0498    5.3292   -4.5021 C   0  0  0  0  0  0  0  0  0  0  0  0
   -8.7028    3.8657   -2.6498 C   0  0  0  0  0  0  0  0  0  0  0  0
   -7.1690    3.1189   -4.3303 O   0  0  0  0  0  0  0  0  0  0  0  0
   -8.3692    4.1799   -7.4479 C   0  0  0  0  0  0  0  0  0  0  0  0
   -8.0613    4.3662  -16.0230 C   0  0  0  0  0  0  0  0  0  0  0  0
   -7.8028    4.1568  -17.3768 C   0  0  0  0  0  0  0  0  0  0  0  0
   -8.8315    3.4375  -18.2174 C   0  0  0  0  0  0  0  0  0  0  0  0
   -9.3969    4.1543  -19.4070 C   0  0  0  0  0  0  0  0  0  0  0  0
  -10.2823    3.8678  -18.2386 C   0  0  0  0  0  0  0  0  0  0  0  0
   -6.6673    4.5926  -17.9961 N   0  0  0  0  0  0  0  0  0  0  0  0
   -5.7737    5.2062  -17.1971 C   0  0  0  0  0  0  0  0  0  0  0  0
  2  1  1  6
  2  3  1  0
  3  4  1  0
  4  5  1  0
  2  6  1  0
  6  7  1  0
  7  8  2  0
  8  9  1  0
  9 10  2  0
 10 11  1  0
 11 12  2  0
 11 13  1  0
 13 14  1  0
 14 15  2  0
 15 16  1  0
 16 17  2  0
 17 18  1  0
 18 19  2  0
 18 20  1  0
 20 21  2  0
 20 22  1  0
 22 23  1  0
 23 24  1  0
 24 25  1  0
 25 26  1  0
 25 27  1  0
 25 28  1  0
 22 29  1  0
 10 30  1  0
 30 31  2  0
 31 32  1  0
 32 33  1  0
 33 34  1  0
 31 35  1  0
 35 36  2  0
  5  3  1  0
 36  6  1  0
 36  9  1  0
 19 14  1  0
 34 32  1  0
 29 17  1  0
M  END
>  <name>  (83) 
P118764

>  <alias>  (83) 
None

>  <smina_score_min>  (83) 
-8.994

>  <exports>  (83) 
['/opt/xchem-fragalysis-2/maxwin/BulkDock/OUTPUTS/openbind_xx01zvns2b_c2_elabs_1LOUTNY.sdf', '/opt/xchem-fragalysis-2/maxwin/BulkDock/OUTPUTS/openbind_xx01zvns2b_c2_elabs_1LSYIIV.sdf', '/opt/xchem-fragalysis-2/maxwin/openbind-hippo/xx01zvns2b/cycle_02/gnina/openbind_xx01zvns2b_c2_elabs_scored_6.2plus_products.sdf']

>  <tags>  (83) 
syndirella_placed,openbind_xx01zvns2b_c2_elabs,openbind_xx01zvns2b_c2_elabs_scored_6.2plus,syndirella_product,openbind_xx01zvns2b_c2_elabs_scored,openbind_xx01zvns2b_c2_elabs_scored_top80percent,BulkDock Fragalysis export,openbind_xx01zvns2b_c2_elabs_scored_top80percent_despaghettified

>  <subsites>  (83) 
1 - Z4590/B/203/1

>  <smiles>  (83) 
C[C@H](C1CC1)n1ncc2c(C(=O)Nc3ccc4c(c3)C(=O)N(CCC(C)(C)O)C4)cc(C3CC3)nc21

>  <HIPPO Pose ID>  (83) 
118764

>  <energy_score>  (83) 
-54.290438

>  <inchikey>  (83) 
XONIUKBGOPAMDH-MRXNPFEDSA-N

>  <gnina_score_min>  (83) 
6.576

>  <gnina_score>  (83) 
6.775

>  <ref_mols>  (83) 
Z3468a

>  <HIPPO Compound ID>  (83) 
183040

>  <distance_score>  (83) 
0.785689

>  <rmsd(smina/fragmenstein)>  (83) 
0.919

>  <ref_pdb>  (83) 
Z3468a

>  <inspiration_score>  (83) 
None

$$$$
P118766
     RDKit          3D

 37 43  0  0  0  0  0  0  0  0999 V2000
   -4.6537    7.0346  -19.5410 C   0  0  0  0  0  0  0  0  0  0  0  0
   -4.4658    5.6123  -19.0140 C   0  0  1  0  0  0  0  0  0  0  0  0
   -3.1414    5.0152  -19.4239 C   0  0  0  0  0  0  0  0  0  0  0  0
   -1.8284    5.6970  -19.1373 C   0  0  0  0  0  0  0  0  0  0  0  0
   -2.1545    4.3946  -18.4657 C   0  0  0  0  0  0  0  0  0  0  0  0
   -4.8247    5.5292  -17.5942 N   0  0  0  0  0  0  0  0  0  0  0  0
   -4.1452    6.2114  -16.6294 N   0  0  0  0  0  0  0  0  0  0  0  0
   -4.9689    6.1547  -15.5744 C   0  0  0  0  0  0  0  0  0  0  0  0
   -6.1648    5.4616  -15.8488 C   0  0  0  0  0  0  0  0  0  0  0  0
   -7.3892    5.1798  -15.2398 C   0  0  0  0  0  0  0  0  0  0  0  0
   -7.7282    5.8230  -13.9707 C   0  0  0  0  0  0  0  0  0  0  0  0
   -7.6811    6.9854  -13.9074 O   0  0  0  0  0  0  0  0  0  0  0  0
   -8.0722    4.7794  -12.8958 N   0  0  0  0  0  0  0  0  0  0  0  0
   -8.3288    4.9316  -11.5442 C   0  0  0  0  0  0  0  0  0  0  0  0
   -8.4829    6.2261  -11.0045 C   0  0  0  0  0  0  0  0  0  0  0  0
   -8.3979    6.4553   -9.6333 C   0  0  0  0  0  0  0  0  0  0  0  0
   -8.1048    5.3673   -8.8558 C   0  0  0  0  0  0  0  0  0  0  0  0
   -8.0169    4.1066   -9.3869 C   0  0  0  0  0  0  0  0  0  0  0  0
   -8.1943    3.8207  -10.7230 C   0  0  0  0  0  0  0  0  0  0  0  0
   -7.1596    3.4373   -8.3723 C   0  0  1  0  0  0  0  0  0  0  0  0
   -5.7027    3.9206   -8.5744 C   0  0  0  0  0  0  0  0  0  0  0  0
   -5.8249    5.2821   -7.9114 C   0  0  0  0  0  0  0  0  0  0  0  0
   -7.3241    5.2415   -7.5836 C   0  0  2  0  0  0  0  0  0  0  0  0
   -7.5283    3.8692   -6.9413 N   0  0  0  0  0  0  0  0  0  0  0  0
   -8.8576    3.7999   -6.1937 C   0  0  0  0  0  0  0  0  0  0  0  0
   -9.9270    3.4729   -6.5680 O   0  0  0  0  0  0  0  0  0  0  0  0
   -8.5449    4.2301   -4.7376 C   0  0  0  0  0  0  0  0  0  0  0  0
   -9.4230    3.7589   -3.8114 F   0  0  0  0  0  0  0  0  0  0  0  0
   -7.2957    3.8587   -4.3074 F   0  0  0  0  0  0  0  0  0  0  0  0
   -8.5725    5.5946   -4.6123 F   0  0  0  0  0  0  0  0  0  0  0  0
   -8.3480    4.4448  -15.9343 C   0  0  0  0  0  0  0  0  0  0  0  0
   -8.0837    4.0583  -17.2440 C   0  0  0  0  0  0  0  0  0  0  0  0
   -9.1365    3.3688  -18.0681 C   0  0  0  0  0  0  0  0  0  0  0  0
   -9.5428    4.0562  -19.3444 C   0  0  0  0  0  0  0  0  0  0  0  0
  -10.5272    3.9354  -18.2276 C   0  0  0  0  0  0  0  0  0  0  0  0
   -6.9165    4.3369  -17.8686 N   0  0  0  0  0  0  0  0  0  0  0  0
   -6.0200    5.0245  -17.1468 C   0  0  0  0  0  0  0  0  0  0  0  0
  2  1  1  1
  2  3  1  0
  3  4  1  0
  4  5  1  0
  2  6  1  0
  6  7  1  0
  7  8  2  0
  8  9  1  0
  9 10  2  0
 10 11  1  0
 11 12  2  0
 11 13  1  0
 13 14  1  0
 14 15  2  0
 15 16  1  0
 16 17  2  0
 17 18  1  0
 18 19  2  0
 18 20  1  0
 20 21  1  6
 21 22  1  0
 23 22  1  6
 23 24  1  0
 24 25  1  0
 25 26  2  0
 25 27  1  0
 27 28  1  0
 27 29  1  0
 27 30  1  0
 10 31  1  0
 31 32  2  0
 32 33  1  0
 33 34  1  0
 34 35  1  0
 32 36  1  0
 36 37  2  0
  5  3  1  0
 37  6  1  0
 37  9  1  0
 19 14  1  0
 24 20  1  0
 35 33  1  0
 23 17  1  0
M  END
>  <name>  (84) 
P118766

>  <alias>  (84) 
None

>  <smina_score_min>  (84) 
-8.329

>  <exports>  (84) 
['/opt/xchem-fragalysis-2/maxwin/BulkDock/OUTPUTS/openbind_xx01zvns2b_c2_elabs_1LOUTNY.sdf', '/opt/xchem-fragalysis-2/maxwin/BulkDock/OUTPUTS/openbind_xx01zvns2b_c2_elabs_1LSYIIV.sdf', '/opt/xchem-fragalysis-2/maxwin/openbind-hippo/xx01zvns2b/cycle_02/gnina/openbind_xx01zvns2b_c2_elabs_scored_6.2plus_products.sdf']

>  <tags>  (84) 
syndirella_placed,openbind_xx01zvns2b_c2_elabs,openbind_xx01zvns2b_c2_elabs_scored_6.2plus,syndirella_product,openbind_xx01zvns2b_c2_elabs_scored,openbind_xx01zvns2b_c2_elabs_scored_top80percent,BulkDock Fragalysis export,openbind_xx01zvns2b_c2_elabs_scored_top80percent_despaghettified

>  <subsites>  (84) 
1 - Z4590/B/203/1

>  <smiles>  (84) 
C[C@@H](C1CC1)n1ncc2c(C(=O)Nc3ccc4c(c3)[C@H]3CC[C@@H]4N3C(=O)C(F)(F)F)cc(C3CC3)nc21

>  <HIPPO Pose ID>  (84) 
118766

>  <energy_score>  (84) 
-15.735491

>  <inchikey>  (84) 
FLZTVNORSOCGNH-IXHHGASFSA-N

>  <gnina_score_min>  (84) 
6.808

>  <gnina_score>  (84) 
6.881

>  <ref_mols>  (84) 
Z3468a

>  <HIPPO Compound ID>  (84) 
183041

>  <distance_score>  (84) 
1.324228

>  <rmsd(smina/fragmenstein)>  (84) 
0.762

>  <ref_pdb>  (84) 
Z3468a

>  <inspiration_score>  (84) 
None

$$$$
P118770
     RDKit          3D

 37 43  0  0  0  0  0  0  0  0999 V2000
   -4.2494    7.2660  -19.5366 C   0  0  0  0  0  0  0  0  0  0  0  0
   -4.1773    5.8081  -19.0964 C   0  0  1  0  0  0  0  0  0  0  0  0
   -2.8983    5.1278  -19.5055 C   0  0  0  0  0  0  0  0  0  0  0  0
   -2.0340    4.3354  -18.5574 C   0  0  0  0  0  0  0  0  0  0  0  0
   -1.5488    5.6517  -19.0952 C   0  0  0  0  0  0  0  0  0  0  0  0
   -4.5669    5.6626  -17.6941 N   0  0  0  0  0  0  0  0  0  0  0  0
   -3.8656    6.2081  -16.6625 N   0  0  0  0  0  0  0  0  0  0  0  0
   -4.6849    6.0407  -15.6145 C   0  0  0  0  0  0  0  0  0  0  0  0
   -5.9046    5.4311  -15.9699 C   0  0  0  0  0  0  0  0  0  0  0  0
   -7.1346    5.1071  -15.4035 C   0  0  0  0  0  0  0  0  0  0  0  0
   -7.4165    5.5668  -14.0508 C   0  0  0  0  0  0  0  0  0  0  0  0
   -7.4009    6.7164  -13.8544 O   0  0  0  0  0  0  0  0  0  0  0  0
   -7.6371    4.3908  -13.0810 N   0  0  0  0  0  0  0  0  0  0  0  0
   -7.9665    4.3837  -11.7338 C   0  0  0  0  0  0  0  0  0  0  0  0
   -8.0292    5.6215  -11.0606 C   0  0  0  0  0  0  0  0  0  0  0  0
   -8.3027    5.6852   -9.7082 C   0  0  0  0  0  0  0  0  0  0  0  0
   -8.5026    4.4846   -9.0755 C   0  0  0  0  0  0  0  0  0  0  0  0
   -8.4435    3.2388   -9.7044 C   0  0  0  0  0  0  0  0  0  0  0  0
   -8.1837    3.1730  -11.0601 C   0  0  0  0  0  0  0  0  0  0  0  0
   -8.6645    2.1611   -8.6918 C   0  0  0  0  0  0  0  0  0  0  0  0
   -8.6834    2.9379   -7.4587 N   0  0  0  0  0  0  0  0  0  0  0  0
   -8.7051    2.3295   -6.1548 C   0  0  1  0  0  0  0  0  0  0  0  0
   -7.9260    3.1290   -5.0982 C   0  0  0  0  0  0  0  0  0  0  0  0
   -8.9887    3.6007   -4.1616 C   0  0  0  0  0  0  0  0  0  0  0  0
   -8.7882    4.2164   -3.1237 O   0  0  0  0  0  0  0  0  0  0  0  0
  -10.1931    3.1705   -4.6012 N   0  0  0  0  0  0  0  0  0  0  0  0
  -10.1156    2.3088   -5.6405 C   0  0  0  0  0  0  0  0  0  0  0  0
  -11.0515    1.6787   -6.0987 O   0  0  0  0  0  0  0  0  0  0  0  0
   -8.7390    4.2913   -7.6611 C   0  0  0  0  0  0  0  0  0  0  0  0
   -8.8988    5.1893   -6.8560 O   0  0  0  0  0  0  0  0  0  0  0  0
   -8.1396    4.5577  -16.2032 C   0  0  0  0  0  0  0  0  0  0  0  0
   -7.8930    4.3625  -17.5645 C   0  0  0  0  0  0  0  0  0  0  0  0
   -8.9171    3.8598  -18.5430 C   0  0  0  0  0  0  0  0  0  0  0  0
  -10.3742    3.6757  -18.2464 C   0  0  0  0  0  0  0  0  0  0  0  0
   -9.4664    2.4797  -18.3313 C   0  0  0  0  0  0  0  0  0  0  0  0
   -6.7039    4.6508  -18.1249 N   0  0  0  0  0  0  0  0  0  0  0  0
   -5.7839    5.1771  -17.3131 C   0  0  0  0  0  0  0  0  0  0  0  0
  2  1  1  1
  2  3  1  0
  3  4  1  0
  4  5  1  0
  2  6  1  0
  6  7  1  0
  7  8  2  0
  8  9  1  0
  9 10  2  0
 10 11  1  0
 11 12  2  0
 11 13  1  0
 13 14  1  0
 14 15  2  0
 15 16  1  0
 16 17  2  0
 17 18  1  0
 18 19  2  0
 18 20  1  0
 20 21  1  0
 22 21  1  6
 22 23  1  0
 23 24  1  0
 24 25  2  0
 24 26  1  0
 26 27  1  0
 27 28  2  0
 21 29  1  0
 29 30  2  0
 10 31  1  0
 31 32  2  0
 32 33  1  0
 33 34  1  0
 34 35  1  0
 32 36  1  0
 36 37  2  0
  5  3  1  0
 37  6  1  0
 37  9  1  0
 19 14  1  0
 27 22  1  0
 35 33  1  0
 29 17  1  0
M  END
>  <name>  (85) 
P118770

>  <alias>  (85) 
None

>  <smina_score_min>  (85) 
-8.069

>  <exports>  (85) 
['/opt/xchem-fragalysis-2/maxwin/BulkDock/OUTPUTS/openbind_xx01zvns2b_c2_elabs_1LOUTNY.sdf', '/opt/xchem-fragalysis-2/maxwin/BulkDock/OUTPUTS/openbind_xx01zvns2b_c2_elabs_1LSYIIV.sdf', '/opt/xchem-fragalysis-2/maxwin/openbind-hippo/xx01zvns2b/cycle_02/gnina/openbind_xx01zvns2b_c2_elabs_scored_6.2plus_products.sdf']

>  <tags>  (85) 
syndirella_placed,openbind_xx01zvns2b_c2_elabs,openbind_xx01zvns2b_c2_elabs_scored_6.2plus,syndirella_product,openbind_xx01zvns2b_c2_elabs_scored,openbind_xx01zvns2b_c2_elabs_scored_top80percent,BulkDock Fragalysis export,openbind_xx01zvns2b_c2_elabs_scored_top80percent_despaghettified

>  <subsites>  (85) 
1 - Z4590/B/203/1

>  <smiles>  (85) 
C[C@@H](C1CC1)n1ncc2c(C(=O)Nc3ccc4c(c3)CN([C@H]3CC(=O)NC3=O)C4=O)cc(C3CC3)nc21

>  <HIPPO Pose ID>  (85) 
118770

>  <energy_score>  (85) 
-16.76582

>  <inchikey>  (85) 
FTELBAKXLKWJQH-XMHCIUCPSA-N

>  <gnina_score_min>  (85) 
6.626

>  <gnina_score>  (85) 
6.687

>  <ref_mols>  (85) 
Z3468a

>  <HIPPO Compound ID>  (85) 
183042

>  <distance_score>  (85) 
0.886518

>  <rmsd(smina/fragmenstein)>  (85) 
0.591

>  <ref_pdb>  (85) 
Z3468a

>  <inspiration_score>  (85) 
None

$$$$
P118776
     RDKit          3D

 38 44  0  0  0  0  0  0  0  0999 V2000
   -5.3162    6.8705  -19.6485 C   0  0  0  0  0  0  0  0  0  0  0  0
   -4.2184    6.1964  -18.8274 C   0  0  2  0  0  0  0  0  0  0  0  0
   -3.6165    5.0317  -19.5573 C   0  0  0  0  0  0  0  0  0  0  0  0
   -2.2507    4.5217  -19.1649 C   0  0  0  0  0  0  0  0  0  0  0  0
   -2.4384    5.2245  -20.4798 C   0  0  0  0  0  0  0  0  0  0  0  0
   -4.6573    5.8281  -17.4834 N   0  0  0  0  0  0  0  0  0  0  0  0
   -3.9038    6.2487  -16.4306 N   0  0  0  0  0  0  0  0  0  0  0  0
   -4.6772    5.9883  -15.3772 C   0  0  0  0  0  0  0  0  0  0  0  0
   -5.8966    5.3787  -15.7363 C   0  0  0  0  0  0  0  0  0  0  0  0
   -7.0713    4.9722  -15.0916 C   0  0  0  0  0  0  0  0  0  0  0  0
   -7.1699    5.3374  -13.6757 C   0  0  0  0  0  0  0  0  0  0  0  0
   -6.8560    6.4318  -13.4155 O   0  0  0  0  0  0  0  0  0  0  0  0
   -7.5789    4.1692  -12.7560 N   0  0  0  0  0  0  0  0  0  0  0  0
   -7.5958    4.0757  -11.3738 C   0  0  0  0  0  0  0  0  0  0  0  0
   -6.7518    4.9927  -10.7095 C   0  0  0  0  0  0  0  0  0  0  0  0
   -6.5699    4.9440   -9.3461 C   0  0  0  0  0  0  0  0  0  0  0  0
   -7.3066    4.0042   -8.6767 C   0  0  0  0  0  0  0  0  0  0  0  0
   -8.2335    3.1566   -9.2792 C   0  0  0  0  0  0  0  0  0  0  0  0
   -8.3341    3.1217  -10.6637 C   0  0  0  0  0  0  0  0  0  0  0  0
   -9.0209    2.4892   -8.1937 C   0  0  0  0  0  0  0  0  0  0  0  0
   -8.6056    3.2470   -6.9920 N   0  0  0  0  0  0  0  0  0  0  0  0
   -9.5942    3.9226   -6.1582 C   0  0  2  0  0  0  0  0  0  0  0  0
   -9.3982    5.4471   -6.0056 C   0  0  0  0  0  0  0  0  0  0  0  0
   -8.5318    5.8666   -4.8115 C   0  0  1  0  0  0  0  0  0  0  0  0
   -9.2495    6.7794   -4.0804 F   0  0  0  0  0  0  0  0  0  0  0  0
   -8.1265    4.7266   -3.8750 C   0  0  0  0  0  0  0  0  0  0  0  0
   -9.1434    3.7143   -3.7526 N   0  0  0  0  0  0  0  0  0  0  0  0
   -9.8045    3.2118   -4.8409 C   0  0  0  0  0  0  0  0  0  0  0  0
  -10.5458    2.2378   -4.7579 O   0  0  0  0  0  0  0  0  0  0  0  0
   -7.4253    3.9241   -7.2361 C   0  0  0  0  0  0  0  0  0  0  0  0
   -6.6992    4.5368   -6.4710 O   0  0  0  0  0  0  0  0  0  0  0  0
   -8.0639    4.3471  -15.8345 C   0  0  0  0  0  0  0  0  0  0  0  0
   -7.8684    4.1797  -17.2101 C   0  0  0  0  0  0  0  0  0  0  0  0
   -8.9152    3.4585  -18.0287 C   0  0  0  0  0  0  0  0  0  0  0  0
   -9.3859    4.1049  -19.3008 C   0  0  0  0  0  0  0  0  0  0  0  0
  -10.3310    3.9701  -18.1507 C   0  0  0  0  0  0  0  0  0  0  0  0
   -6.7638    4.6320  -17.8733 N   0  0  0  0  0  0  0  0  0  0  0  0
   -5.8283    5.2142  -17.1029 C   0  0  0  0  0  0  0  0  0  0  0  0
  2  1  1  6
  2  3  1  0
  3  4  1  0
  4  5  1  0
  2  6  1  0
  6  7  1  0
  7  8  2  0
  8  9  1  0
  9 10  2  0
 10 11  1  0
 11 12  2  0
 11 13  1  0
 13 14  1  0
 14 15  2  0
 15 16  1  0
 16 17  2  0
 17 18  1  0
 18 19  2  0
 18 20  1  0
 20 21  1  0
 22 21  1  1
 22 23  1  0
 23 24  1  0
 24 25  1  1
 24 26  1  0
 26 27  1  0
 27 28  1  0
 28 29  2  0
 21 30  1  0
 30 31  2  0
 10 32  1  0
 32 33  2  0
 33 34  1  0
 34 35  1  0
 35 36  1  0
 33 37  1  0
 37 38  2  0
  5  3  1  0
 38  6  1  0
 38  9  1  0
 19 14  1  0
 28 22  1  0
 36 34  1  0
 30 17  1  0
M  END
>  <name>  (86) 
P118776

>  <alias>  (86) 
None

>  <smina_score_min>  (86) 
-9.558

>  <exports>  (86) 
['/opt/xchem-fragalysis-2/maxwin/BulkDock/OUTPUTS/openbind_xx01zvns2b_c2_elabs_1LOUTNY.sdf', '/opt/xchem-fragalysis-2/maxwin/BulkDock/OUTPUTS/openbind_xx01zvns2b_c2_elabs_1LSYIIV.sdf', '/opt/xchem-fragalysis-2/maxwin/openbind-hippo/xx01zvns2b/cycle_02/gnina/openbind_xx01zvns2b_c2_elabs_scored_6.2plus_products.sdf']

>  <tags>  (86) 
syndirella_placed,openbind_xx01zvns2b_c2_elabs,openbind_xx01zvns2b_c2_elabs_scored_6.2plus,syndirella_product,openbind_xx01zvns2b_c2_elabs_scored,openbind_xx01zvns2b_c2_elabs_scored_top80percent,BulkDock Fragalysis export,openbind_xx01zvns2b_c2_elabs_scored_top80percent_despaghettified

>  <subsites>  (86) 
1 - Z4590/B/203/1

>  <smiles>  (86) 
C[C@H](C1CC1)n1ncc2c(C(=O)Nc3ccc4c(c3)CN([C@@H]3C[C@@H](F)CNC3=O)C4=O)cc(C3CC3)nc21

>  <HIPPO Pose ID>  (86) 
118776

>  <energy_score>  (86) 
-38.790909

>  <inchikey>  (86) 
MOCZOCFWGHSRLC-CLNHLTTHSA-N

>  <gnina_score_min>  (86) 
6.736

>  <gnina_score>  (86) 
6.757

>  <ref_mols>  (86) 
Z3468a

>  <HIPPO Compound ID>  (86) 
183043

>  <distance_score>  (86) 
0.859918

>  <rmsd(smina/fragmenstein)>  (86) 
0.822

>  <ref_pdb>  (86) 
Z3468a

>  <inspiration_score>  (86) 
None

$$$$
P118780
     RDKit          3D

 38 44  0  0  0  0  0  0  0  0999 V2000
   -4.2629    7.2787  -19.4559 C   0  0  0  0  0  0  0  0  0  0  0  0
   -4.1942    5.8099  -19.0531 C   0  0  1  0  0  0  0  0  0  0  0  0
   -2.9276    5.1292  -19.4999 C   0  0  0  0  0  0  0  0  0  0  0  0
   -1.5661    5.6487  -19.1241 C   0  0  0  0  0  0  0  0  0  0  0  0
   -2.0391    4.3315  -18.5787 C   0  0  0  0  0  0  0  0  0  0  0  0
   -4.5619    5.6273  -17.6489 N   0  0  0  0  0  0  0  0  0  0  0  0
   -3.8496    6.1533  -16.6149 N   0  0  0  0  0  0  0  0  0  0  0  0
   -4.6497    5.9460  -15.5589 C   0  0  0  0  0  0  0  0  0  0  0  0
   -5.8652    5.3213  -15.9073 C   0  0  0  0  0  0  0  0  0  0  0  0
   -7.0837    4.9698  -15.3244 C   0  0  0  0  0  0  0  0  0  0  0  0
   -7.3634    5.4667  -13.9821 C   0  0  0  0  0  0  0  0  0  0  0  0
   -7.2837    6.6240  -13.8407 O   0  0  0  0  0  0  0  0  0  0  0  0
   -7.6637    4.3499  -12.9559 N   0  0  0  0  0  0  0  0  0  0  0  0
   -8.0097    4.4284  -11.6099 C   0  0  0  0  0  0  0  0  0  0  0  0
   -8.1508    5.7281  -11.0798 C   0  0  0  0  0  0  0  0  0  0  0  0
   -8.4550    5.9345   -9.7536 C   0  0  0  0  0  0  0  0  0  0  0  0
   -8.6144    4.8080   -8.9907 C   0  0  0  0  0  0  0  0  0  0  0  0
   -8.4679    3.4992   -9.4523 C   0  0  0  0  0  0  0  0  0  0  0  0
   -8.1769    3.2900  -10.7963 C   0  0  0  0  0  0  0  0  0  0  0  0
   -8.6427    2.5639   -8.2855 C   0  0  0  0  0  0  0  0  0  0  0  0
   -8.7089    3.5103   -7.1588 N   0  0  0  0  0  0  0  0  0  0  0  0
   -8.3557    3.2340   -5.7763 C   0  0  1  0  0  0  0  0  0  0  0  0
   -7.2718    4.2257   -5.2905 C   0  0  0  0  0  0  0  0  0  0  0  0
   -6.9999    4.1140   -3.8125 C   0  0  0  0  0  0  0  0  0  0  0  0
   -8.2634    4.2084   -3.0069 C   0  0  0  0  0  0  0  0  0  0  0  0
   -8.2505    4.4738   -1.8070 O   0  0  0  0  0  0  0  0  0  0  0  0
   -9.4237    3.8957   -3.6534 N   0  0  0  0  0  0  0  0  0  0  0  0
   -9.5933    3.3141   -4.8921 C   0  0  0  0  0  0  0  0  0  0  0  0
  -10.6857    2.8463   -5.2045 O   0  0  0  0  0  0  0  0  0  0  0  0
   -8.8798    4.8052   -7.5707 C   0  0  0  0  0  0  0  0  0  0  0  0
   -9.1094    5.8025   -6.9114 O   0  0  0  0  0  0  0  0  0  0  0  0
   -8.1019    4.4506  -16.1311 C   0  0  0  0  0  0  0  0  0  0  0  0
   -7.8759    4.3062  -17.5045 C   0  0  0  0  0  0  0  0  0  0  0  0
   -8.9091    3.8473  -18.4951 C   0  0  0  0  0  0  0  0  0  0  0  0
  -10.3672    3.6708  -18.2068 C   0  0  0  0  0  0  0  0  0  0  0  0
   -9.4723    2.4678  -18.3270 C   0  0  0  0  0  0  0  0  0  0  0  0
   -6.6960    4.6137  -18.0735 N   0  0  0  0  0  0  0  0  0  0  0  0
   -5.7660    5.1165  -17.2604 C   0  0  0  0  0  0  0  0  0  0  0  0
  2  1  1  1
  2  3  1  0
  3  4  1  0
  4  5  1  0
  2  6  1  0
  6  7  1  0
  7  8  2  0
  8  9  1  0
  9 10  2  0
 10 11  1  0
 11 12  2  0
 11 13  1  0
 13 14  1  0
 14 15  2  0
 15 16  1  0
 16 17  2  0
 17 18  1  0
 18 19  2  0
 18 20  1  0
 20 21  1  0
 22 21  1  6
 22 23  1  0
 23 24  1  0
 24 25  1  0
 25 26  2  0
 25 27  1  0
 27 28  1  0
 28 29  2  0
 21 30  1  0
 30 31  2  0
 10 32  1  0
 32 33  2  0
 33 34  1  0
 34 35  1  0
 35 36  1  0
 33 37  1  0
 37 38  2  0
  5  3  1  0
 38  6  1  0
 38  9  1  0
 19 14  1  0
 28 22  1  0
 36 34  1  0
 30 17  1  0
M  END
>  <name>  (87) 
P118780

>  <alias>  (87) 
None

>  <smina_score_min>  (87) 
-9.276

>  <exports>  (87) 
['/opt/xchem-fragalysis-2/maxwin/BulkDock/OUTPUTS/openbind_xx01zvns2b_c2_elabs_1LOUTNY.sdf', '/opt/xchem-fragalysis-2/maxwin/BulkDock/OUTPUTS/openbind_xx01zvns2b_c2_elabs_1LSYIIV.sdf', '/opt/xchem-fragalysis-2/maxwin/openbind-hippo/xx01zvns2b/cycle_02/gnina/openbind_xx01zvns2b_c2_elabs_scored_6.2plus_products.sdf']

>  <tags>  (87) 
syndirella_placed,openbind_xx01zvns2b_c2_elabs,openbind_xx01zvns2b_c2_elabs_scored_6.2plus,syndirella_product,openbind_xx01zvns2b_c2_elabs_scored,openbind_xx01zvns2b_c2_elabs_scored_top80percent,BulkDock Fragalysis export,openbind_xx01zvns2b_c2_elabs_scored_top80percent_despaghettified

>  <subsites>  (87) 
1 - Z4590/B/203/1

>  <smiles>  (87) 
C[C@@H](C1CC1)n1ncc2c(C(=O)Nc3ccc4c(c3)CN([C@H]3CCC(=O)NC3=O)C4=O)cc(C3CC3)nc21

>  <HIPPO Pose ID>  (87) 
118780

>  <energy_score>  (87) 
-42.514392

>  <inchikey>  (87) 
OXFBDOBVIMMYJR-PSLXWICFSA-N

>  <gnina_score_min>  (87) 
6.86

>  <gnina_score>  (87) 
6.752

>  <ref_mols>  (87) 
Z3468a

>  <HIPPO Compound ID>  (87) 
183044

>  <distance_score>  (87) 
0.925996

>  <rmsd(smina/fragmenstein)>  (87) 
0.976

>  <ref_pdb>  (87) 
Z3468a

>  <inspiration_score>  (87) 
None

$$$$
P118783
     RDKit          3D

 38 44  0  0  0  0  0  0  0  0999 V2000
   -4.8512    7.1172  -19.4421 C   0  0  0  0  0  0  0  0  0  0  0  0
   -3.8793    6.2746  -18.6109 C   0  0  2  0  0  0  0  0  0  0  0  0
   -3.4072    5.0744  -19.3788 C   0  0  0  0  0  0  0  0  0  0  0  0
   -2.0914    4.4330  -19.0231 C   0  0  0  0  0  0  0  0  0  0  0  0
   -2.2372    5.1770  -20.3224 C   0  0  0  0  0  0  0  0  0  0  0  0
   -4.4373    5.8966  -17.3139 N   0  0  0  0  0  0  0  0  0  0  0  0
   -3.8069    6.2897  -16.1737 N   0  0  0  0  0  0  0  0  0  0  0  0
   -4.7113    6.0386  -15.2224 C   0  0  0  0  0  0  0  0  0  0  0  0
   -5.8846    5.4512  -15.7324 C   0  0  0  0  0  0  0  0  0  0  0  0
   -7.1500    5.0855  -15.2780 C   0  0  0  0  0  0  0  0  0  0  0  0
   -7.5594    5.5535  -13.9587 C   0  0  0  0  0  0  0  0  0  0  0  0
   -7.5764    6.7083  -13.7930 O   0  0  0  0  0  0  0  0  0  0  0  0
   -7.8464    4.3996  -12.9795 N   0  0  0  0  0  0  0  0  0  0  0  0
   -8.1122    4.4182  -11.6176 C   0  0  0  0  0  0  0  0  0  0  0  0
   -8.0557    5.6696  -10.9580 C   0  0  0  0  0  0  0  0  0  0  0  0
   -8.2456    5.7804   -9.5915 C   0  0  0  0  0  0  0  0  0  0  0  0
   -8.5015    4.6106   -8.9276 C   0  0  0  0  0  0  0  0  0  0  0  0
   -8.5827    3.3775   -9.5522 C   0  0  0  0  0  0  0  0  0  0  0  0
   -8.3828    3.2410  -10.9128 C   0  0  0  0  0  0  0  0  0  0  0  0
   -8.8428    2.3966   -8.5000 C   0  0  0  0  0  0  0  0  0  0  0  0
   -9.0640    1.2230   -8.6993 O   0  0  0  0  0  0  0  0  0  0  0  0
   -8.7677    3.0816   -7.3190 N   0  0  0  0  0  0  0  0  0  0  0  0
   -8.7485    2.4708   -6.0186 C   0  0  1  0  0  0  0  0  0  0  0  0
   -7.7449    3.1330   -5.0611 C   0  0  0  0  0  0  0  0  0  0  0  0
   -8.5867    3.7397   -3.9956 C   0  0  0  0  0  0  0  0  0  0  0  0
   -8.1640    4.3373   -3.0176 O   0  0  0  0  0  0  0  0  0  0  0  0
   -9.8787    3.4578   -4.2496 N   0  0  0  0  0  0  0  0  0  0  0  0
  -10.0755    2.6723   -5.3395 C   0  0  0  0  0  0  0  0  0  0  0  0
  -11.1683    2.2814   -5.7075 O   0  0  0  0  0  0  0  0  0  0  0  0
   -8.6862    4.4221   -7.5090 C   0  0  0  0  0  0  0  0  0  0  0  0
   -8.7238    5.3277   -6.6965 O   0  0  0  0  0  0  0  0  0  0  0  0
   -8.0699    4.5457  -16.1719 C   0  0  0  0  0  0  0  0  0  0  0  0
   -7.7160    4.4228  -17.5198 C   0  0  0  0  0  0  0  0  0  0  0  0
   -8.6751    3.9109  -18.5687 C   0  0  0  0  0  0  0  0  0  0  0  0
   -9.3246    2.5694  -18.3724 C   0  0  0  0  0  0  0  0  0  0  0  0
  -10.1660    3.8133  -18.3793 C   0  0  0  0  0  0  0  0  0  0  0  0
   -6.5030    4.8067  -17.9911 N   0  0  0  0  0  0  0  0  0  0  0  0
   -5.6546    5.3105  -17.0830 C   0  0  0  0  0  0  0  0  0  0  0  0
  2  1  1  6
  2  3  1  0
  3  4  1  0
  4  5  1  0
  2  6  1  0
  6  7  1  0
  7  8  2  0
  8  9  1  0
  9 10  2  0
 10 11  1  0
 11 12  2  0
 11 13  1  0
 13 14  1  0
 14 15  2  0
 15 16  1  0
 16 17  2  0
 17 18  1  0
 18 19  2  0
 18 20  1  0
 20 21  2  0
 20 22  1  0
 23 22  1  6
 23 24  1  0
 24 25  1  0
 25 26  2  0
 25 27  1  0
 27 28  1  0
 28 29  2  0
 22 30  1  0
 30 31  2  0
 10 32  1  0
 32 33  2  0
 33 34  1  0
 34 35  1  0
 35 36  1  0
 33 37  1  0
 37 38  2  0
  5  3  1  0
 38  6  1  0
 38  9  1  0
 19 14  1  0
 28 23  1  0
 36 34  1  0
 30 17  1  0
M  END
>  <name>  (88) 
P118783

>  <alias>  (88) 
None

>  <smina_score_min>  (88) 
-8.623

>  <exports>  (88) 
['/opt/xchem-fragalysis-2/maxwin/BulkDock/OUTPUTS/openbind_xx01zvns2b_c2_elabs_1LOUTNY.sdf', '/opt/xchem-fragalysis-2/maxwin/BulkDock/OUTPUTS/openbind_xx01zvns2b_c2_elabs_1LSYIIV.sdf', '/opt/xchem-fragalysis-2/maxwin/openbind-hippo/xx01zvns2b/cycle_02/gnina/openbind_xx01zvns2b_c2_elabs_scored_6.2plus_products.sdf']

>  <tags>  (88) 
syndirella_placed,openbind_xx01zvns2b_c2_elabs,openbind_xx01zvns2b_c2_elabs_scored_6.2plus,syndirella_product,openbind_xx01zvns2b_c2_elabs_scored,openbind_xx01zvns2b_c2_elabs_scored_top80percent,BulkDock Fragalysis export,openbind_xx01zvns2b_c2_elabs_scored_top80percent_despaghettified

>  <subsites>  (88) 
1 - Z4590/B/203/1

>  <smiles>  (88) 
C[C@H](C1CC1)n1ncc2c(C(=O)Nc3ccc4c(c3)C(=O)N([C@H]3CC(=O)NC3=O)C4=O)cc(C3CC3)nc21

>  <HIPPO Pose ID>  (88) 
118783

>  <energy_score>  (88) 
-57.384315

>  <inchikey>  (88) 
RFJDKKCDDAJYTG-GTJPDFRWSA-N

>  <gnina_score_min>  (88) 
6.582

>  <gnina_score>  (88) 
6.607

>  <ref_mols>  (88) 
Z3468a

>  <HIPPO Compound ID>  (88) 
183045

>  <distance_score>  (88) 
0.78668

>  <rmsd(smina/fragmenstein)>  (88) 
0.62

>  <ref_pdb>  (88) 
Z3468a

>  <inspiration_score>  (88) 
None

$$$$
P118786
     RDKit          3D

 38 44  0  0  0  0  0  0  0  0999 V2000
   -4.7666    6.9900  -19.3256 C   0  0  0  0  0  0  0  0  0  0  0  0
   -4.1500    5.7508  -18.6678 C   0  0  1  0  0  0  0  0  0  0  0  0
   -2.6530    5.7944  -18.7755 C   0  0  0  0  0  0  0  0  0  0  0  0
   -1.9879    5.2889  -20.0312 C   0  0  0  0  0  0  0  0  0  0  0  0
   -1.8226    4.5428  -18.7358 C   0  0  0  0  0  0  0  0  0  0  0  0
   -4.6325    5.6082  -17.2916 N   0  0  0  0  0  0  0  0  0  0  0  0
   -3.9666    6.0888  -16.2094 N   0  0  0  0  0  0  0  0  0  0  0  0
   -4.8575    5.9413  -15.2165 C   0  0  0  0  0  0  0  0  0  0  0  0
   -6.0840    5.3903  -15.6498 C   0  0  0  0  0  0  0  0  0  0  0  0
   -7.3618    5.1029  -15.1500 C   0  0  0  0  0  0  0  0  0  0  0  0
   -7.6770    5.5508  -13.7860 C   0  0  0  0  0  0  0  0  0  0  0  0
   -7.5785    6.6958  -13.5754 O   0  0  0  0  0  0  0  0  0  0  0  0
   -7.9940    4.3792  -12.8283 N   0  0  0  0  0  0  0  0  0  0  0  0
   -8.1565    4.3602  -11.4408 C   0  0  0  0  0  0  0  0  0  0  0  0
   -8.2648    3.1419  -10.7552 C   0  0  0  0  0  0  0  0  0  0  0  0
   -7.9378    3.0579   -9.3886 C   0  0  0  0  0  0  0  0  0  0  0  0
   -7.5075    4.2065   -8.7645 C   0  0  0  0  0  0  0  0  0  0  0  0
   -7.5508    5.4063   -9.4004 C   0  0  0  0  0  0  0  0  0  0  0  0
   -7.9068    5.5271  -10.7271 C   0  0  0  0  0  0  0  0  0  0  0  0
   -6.6426    6.2499   -8.5591 C   0  0  2  0  0  0  0  0  0  0  0  0
   -5.1829    5.9194   -8.9202 C   0  0  0  0  0  0  0  0  0  0  0  0
   -5.0949    4.5551   -8.2450 C   0  0  0  0  0  0  0  0  0  0  0  0
   -6.5200    4.5001   -7.6683 C   0  0  1  0  0  0  0  0  0  0  0  0
   -6.7031    5.8991   -7.0751 N   0  0  0  0  0  0  0  0  0  0  0  0
   -7.8338    5.9337   -6.1185 C   0  0  0  0  0  0  0  0  0  0  0  0
   -8.9668    6.1631   -6.2934 O   0  0  0  0  0  0  0  0  0  0  0  0
   -7.2485    5.6402   -4.9220 O   0  0  0  0  0  0  0  0  0  0  0  0
   -8.0073    5.4742   -3.7062 C   0  0  0  0  0  0  0  0  0  0  0  0
   -8.8952    4.2349   -3.8166 C   0  0  0  0  0  0  0  0  0  0  0  0
   -8.7640    6.7523   -3.3377 C   0  0  0  0  0  0  0  0  0  0  0  0
   -6.9541    5.2127   -2.6160 C   0  0  0  0  0  0  0  0  0  0  0  0
   -8.3252    4.5955  -16.0265 C   0  0  0  0  0  0  0  0  0  0  0  0
   -7.9970    4.4139  -17.3777 C   0  0  0  0  0  0  0  0  0  0  0  0
   -8.9673    3.9740  -18.4384 C   0  0  0  0  0  0  0  0  0  0  0  0
  -10.4228    3.6950  -18.2362 C   0  0  0  0  0  0  0  0  0  0  0  0
   -9.4545    2.5550  -18.3864 C   0  0  0  0  0  0  0  0  0  0  0  0
   -6.7681    4.6747  -17.8661 N   0  0  0  0  0  0  0  0  0  0  0  0
   -5.8856    5.1556  -16.9893 C   0  0  0  0  0  0  0  0  0  0  0  0
  2  1  1  1
  2  3  1  0
  3  4  1  0
  4  5  1  0
  2  6  1  0
  6  7  1  0
  7  8  2  0
  8  9  1  0
  9 10  2  0
 10 11  1  0
 11 12  2  0
 11 13  1  0
 13 14  1  0
 14 15  2  0
 15 16  1  0
 16 17  2  0
 17 18  1  0
 18 19  2  0
 18 20  1  0
 20 21  1  6
 21 22  1  0
 23 22  1  6
 23 24  1  0
 24 25  1  0
 25 26  2  0
 25 27  1  0
 27 28  1  0
 28 29  1  0
 28 30  1  0
 28 31  1  0
 10 32  1  0
 32 33  2  0
 33 34  1  0
 34 35  1  0
 35 36  1  0
 33 37  1  0
 37 38  2  0
  5  3  1  0
 38  6  1  0
 38  9  1  0
 19 14  1  0
 24 20  1  0
 36 34  1  0
 23 17  1  0
M  END
>  <name>  (89) 
P118786

>  <alias>  (89) 
None

>  <smina_score_min>  (89) 
-8.529

>  <exports>  (89) 
['/opt/xchem-fragalysis-2/maxwin/BulkDock/OUTPUTS/openbind_xx01zvns2b_c2_elabs_1LOUTNY.sdf', '/opt/xchem-fragalysis-2/maxwin/BulkDock/OUTPUTS/openbind_xx01zvns2b_c2_elabs_1LSYIIV.sdf', '/opt/xchem-fragalysis-2/maxwin/openbind-hippo/xx01zvns2b/cycle_02/gnina/openbind_xx01zvns2b_c2_elabs_scored_6.2plus_products.sdf']

>  <tags>  (89) 
syndirella_placed,openbind_xx01zvns2b_c2_elabs,openbind_xx01zvns2b_c2_elabs_scored_6.2plus,syndirella_product,openbind_xx01zvns2b_c2_elabs_scored,openbind_xx01zvns2b_c2_elabs_scored_top80percent,BulkDock Fragalysis export,openbind_xx01zvns2b_c2_elabs_scored_top80percent_despaghettified

>  <subsites>  (89) 
1 - Z4590/B/203/1

>  <smiles>  (89) 
C[C@@H](C1CC1)n1ncc2c(C(=O)Nc3ccc4c(c3)[C@@H]3CC[C@H]4N3C(=O)OC(C)(C)C)cc(C3CC3)nc21

>  <HIPPO Pose ID>  (89) 
118786

>  <energy_score>  (89) 
-0.114613

>  <inchikey>  (89) 
MRDNLEFPLJREHO-HKFLSJHISA-N

>  <gnina_score_min>  (89) 
6.898

>  <gnina_score>  (89) 
6.865

>  <ref_mols>  (89) 
Z3468a

>  <HIPPO Compound ID>  (89) 
183046

>  <distance_score>  (89) 
1.787175

>  <rmsd(smina/fragmenstein)>  (89) 
0.445

>  <ref_pdb>  (89) 
Z3468a

>  <inspiration_score>  (89) 
None

$$$$
P118787
     RDKit          3D

 38 44  0  0  0  0  0  0  0  0999 V2000
   -4.8945    6.7961   -2.3602 C   0  0  0  0  0  0  0  0  0  0  0  0
   -4.3569    5.6335   -3.1980 C   0  0  0  0  0  0  0  0  0  0  0  0
   -3.7871    4.5313   -2.3010 C   0  0  0  0  0  0  0  0  0  0  0  0
   -5.4133    5.0869   -4.1406 C   0  0  0  0  0  0  0  0  0  0  0  0
   -5.2006    5.1166   -5.5270 C   0  0  0  0  0  0  0  0  0  0  0  0
   -6.1661    4.6133   -6.4100 C   0  0  0  0  0  0  0  0  0  0  0  0
   -7.3853    4.0983   -5.9363 C   0  0  0  0  0  0  0  0  0  0  0  0
   -8.5185    3.8968   -6.7563 N   0  0  0  0  0  0  0  0  0  0  0  0
   -8.8776    5.2433   -7.2378 C   0  0  0  0  0  0  0  0  0  0  0  0
   -8.5707    5.1970   -8.6980 C   0  0  0  0  0  0  0  0  0  0  0  0
   -8.4677    6.2672   -9.5558 C   0  0  0  0  0  0  0  0  0  0  0  0
   -8.1968    6.0067  -10.8927 C   0  0  0  0  0  0  0  0  0  0  0  0
   -8.0343    4.6958  -11.3752 C   0  0  0  0  0  0  0  0  0  0  0  0
   -7.7737    4.5377  -12.7422 N   0  0  0  0  0  0  0  0  0  0  0  0
   -7.4816    5.5925  -13.8392 C   0  0  0  0  0  0  0  0  0  0  0  0
   -7.4890    6.7610  -13.7886 O   0  0  0  0  0  0  0  0  0  0  0  0
   -7.1569    5.0207  -15.1533 C   0  0  0  0  0  0  0  0  0  0  0  0
   -8.1705    4.5142  -15.9850 C   0  0  0  0  0  0  0  0  0  0  0  0
   -7.9199    4.3394  -17.3528 C   0  0  0  0  0  0  0  0  0  0  0  0
   -8.9368    3.9343  -18.3840 C   0  0  0  0  0  0  0  0  0  0  0  0
   -9.4574    2.5282  -18.3358 C   0  0  0  0  0  0  0  0  0  0  0  0
  -10.3907    3.6909  -18.1428 C   0  0  0  0  0  0  0  0  0  0  0  0
   -6.7191    4.5970  -17.8961 N   0  0  0  0  0  0  0  0  0  0  0  0
   -5.7972    5.0985  -17.0758 C   0  0  0  0  0  0  0  0  0  0  0  0
   -5.9180    5.3344  -15.7270 C   0  0  0  0  0  0  0  0  0  0  0  0
   -4.6952    5.9503  -15.3830 C   0  0  0  0  0  0  0  0  0  0  0  0
   -3.8788    6.1268  -16.4347 N   0  0  0  0  0  0  0  0  0  0  0  0
   -4.5868    5.5956  -17.4686 N   0  0  0  0  0  0  0  0  0  0  0  0
   -4.2367    5.7965  -18.8789 C   0  0  1  0  0  0  0  0  0  0  0  0
   -4.3154    7.2692  -19.2687 C   0  0  0  0  0  0  0  0  0  0  0  0
   -2.9831    5.1189  -19.3670 C   0  0  0  0  0  0  0  0  0  0  0  0
   -2.0396    4.3573  -18.4726 C   0  0  0  0  0  0  0  0  0  0  0  0
   -1.6121    5.6662  -19.0706 C   0  0  0  0  0  0  0  0  0  0  0  0
   -8.1297    3.6117  -10.4892 C   0  0  0  0  0  0  0  0  0  0  0  0
   -8.3793    3.8883   -9.1405 C   0  0  0  0  0  0  0  0  0  0  0  0
   -8.4822    2.9748   -7.9509 C   0  0  0  0  0  0  0  0  0  0  0  0
   -7.5764    4.0427   -4.5499 C   0  0  0  0  0  0  0  0  0  0  0  0
   -6.6085    4.5291   -3.6633 C   0  0  0  0  0  0  0  0  0  0  0  0
  1  2  1  0
  2  3  1  0
  2  4  1  0
  4  5  2  0
  5  6  1  0
  6  7  2  0
  7  8  1  0
  8  9  1  0
  9 10  1  0
 10 11  2  0
 11 12  1  0
 12 13  2  0
 13 14  1  0
 14 15  1  0
 15 16  2  0
 15 17  1  0
 17 18  2  0
 18 19  1  0
 19 20  1  0
 20 21  1  0
 21 22  1  0
 19 23  2  0
 23 24  1  0
 24 25  2  0
 25 26  1  0
 26 27  2  0
 27 28  1  0
 28 29  1  0
 29 30  1  1
 29 31  1  0
 31 32  1  0
 32 33  1  0
 13 34  1  0
 34 35  2  0
 35 36  1  0
  7 37  1  0
 37 38  2  0
 38  4  1  0
 36  8  1  0
 35 10  1  0
 25 17  1  0
 33 31  1  0
 22 20  1  0
 28 24  1  0
M  END
>  <name>  (90) 
P118787

>  <alias>  (90) 
None

>  <smina_score_min>  (90) 
-8.5

>  <exports>  (90) 
['/opt/xchem-fragalysis-2/maxwin/BulkDock/OUTPUTS/openbind_xx01zvns2b_c2_elabs_1LOUTNY.sdf', '/opt/xchem-fragalysis-2/maxwin/BulkDock/OUTPUTS/openbind_xx01zvns2b_c2_elabs_1LSYIIV.sdf', '/opt/xchem-fragalysis-2/maxwin/openbind-hippo/xx01zvns2b/cycle_02/gnina/openbind_xx01zvns2b_c2_elabs_scored_6.2plus_products.sdf']

>  <tags>  (90) 
syndirella_placed,openbind_xx01zvns2b_c2_elabs,openbind_xx01zvns2b_c2_elabs_scored_6.2plus,syndirella_product,openbind_xx01zvns2b_c2_elabs_scored,openbind_xx01zvns2b_c2_elabs_scored_top80percent,BulkDock Fragalysis export,openbind_xx01zvns2b_c2_elabs_scored_top80percent_despaghettified

>  <subsites>  (90) 
1 - Z4590/B/203/1

>  <smiles>  (90) 
CC(C)c1ccc(N2Cc3ccc(NC(=O)c4cc(C5CC5)nc5c4cnn5[C@@H](C)C4CC4)cc3C2)cc1

>  <HIPPO Pose ID>  (90) 
118787

>  <energy_score>  (90) 
-36.715916

>  <inchikey>  (90) 
HUPSLSUNSCIEIJ-FQEVSTJZSA-N

>  <gnina_score_min>  (90) 
6.749

>  <gnina_score>  (90) 
6.875

>  <ref_mols>  (90) 
Z3468a

>  <HIPPO Compound ID>  (90) 
183047

>  <distance_score>  (90) 
1.049683

>  <rmsd(smina/fragmenstein)>  (90) 
0.783

>  <ref_pdb>  (90) 
Z3468a

>  <inspiration_score>  (90) 
None

$$$$
P118791
     RDKit          3D

 38 44  0  0  0  0  0  0  0  0999 V2000
   -3.6155    7.6846  -19.5408 C   0  0  0  0  0  0  0  0  0  0  0  0
   -4.1719    6.2950  -19.3042 C   0  0  1  0  0  0  0  0  0  0  0  0
   -3.3842    5.1493  -19.8855 C   0  0  0  0  0  0  0  0  0  0  0  0
   -2.0819    4.6971  -19.2711 C   0  0  0  0  0  0  0  0  0  0  0  0
   -2.0899    5.3067  -20.6444 C   0  0  0  0  0  0  0  0  0  0  0  0
   -4.4724    6.0616  -17.8990 N   0  0  0  0  0  0  0  0  0  0  0  0
   -3.5998    6.3655  -16.9015 N   0  0  0  0  0  0  0  0  0  0  0  0
   -4.2082    5.8812  -15.8132 C   0  0  0  0  0  0  0  0  0  0  0  0
   -5.4821    5.3600  -16.1044 C   0  0  0  0  0  0  0  0  0  0  0  0
   -6.5453    4.7723  -15.4437 C   0  0  0  0  0  0  0  0  0  0  0  0
   -6.3814    4.5367  -14.0155 C   0  0  0  0  0  0  0  0  0  0  0  0
   -5.4570    3.9415  -13.6454 O   0  0  0  0  0  0  0  0  0  0  0  0
   -7.5496    5.1317  -13.2389 N   0  0  0  0  0  0  0  0  0  0  0  0
   -7.8693    5.0475  -11.9125 C   0  0  0  0  0  0  0  0  0  0  0  0
   -8.4163    6.1555  -11.2558 C   0  0  0  0  0  0  0  0  0  0  0  0
   -8.6174    6.1014   -9.8837 C   0  0  0  0  0  0  0  0  0  0  0  0
   -8.3429    4.9014   -9.2635 C   0  0  0  0  0  0  0  0  0  0  0  0
   -7.8395    3.8058   -9.9278 C   0  0  0  0  0  0  0  0  0  0  0  0
   -7.5546    3.8551  -11.2582 C   0  0  0  0  0  0  0  0  0  0  0  0
   -7.7120    2.7106   -8.9917 C   0  0  0  0  0  0  0  0  0  0  0  0
   -7.2488    1.6319   -9.3002 O   0  0  0  0  0  0  0  0  0  0  0  0
   -8.1817    3.2017   -7.8055 N   0  0  0  0  0  0  0  0  0  0  0  0
   -8.5978    2.3515   -6.7217 C   0  0  1  0  0  0  0  0  0  0  0  0
   -8.3465    3.0398   -5.3777 C   0  0  0  0  0  0  0  0  0  0  0  0
   -9.6094    3.3122   -4.5874 C   0  0  0  0  0  0  0  0  0  0  0  0
  -10.7067    2.3117   -4.8994 C   0  0  0  0  0  0  0  0  0  0  0  0
  -11.0131    2.3239   -6.2817 N   0  0  0  0  0  0  0  0  0  0  0  0
  -10.0197    2.0340   -7.1582 C   0  0  0  0  0  0  0  0  0  0  0  0
  -10.2835    1.6067   -8.2785 O   0  0  0  0  0  0  0  0  0  0  0  0
   -8.5743    4.5077   -7.8976 C   0  0  0  0  0  0  0  0  0  0  0  0
   -9.0666    5.2610   -7.0768 O   0  0  0  0  0  0  0  0  0  0  0  0
   -7.6686    4.3520  -16.1729 C   0  0  0  0  0  0  0  0  0  0  0  0
   -7.6866    4.5260  -17.5615 C   0  0  0  0  0  0  0  0  0  0  0  0
   -8.7832    4.0269  -18.4738 C   0  0  0  0  0  0  0  0  0  0  0  0
  -10.2158    3.8761  -18.0571 C   0  0  0  0  0  0  0  0  0  0  0  0
   -9.3661    2.6567  -18.2695 C   0  0  0  0  0  0  0  0  0  0  0  0
   -6.6761    5.1412  -18.2088 N   0  0  0  0  0  0  0  0  0  0  0  0
   -5.6306    5.5015  -17.4586 C   0  0  0  0  0  0  0  0  0  0  0  0
  2  1  1  1
  2  3  1  0
  3  4  1  0
  4  5  1  0
  2  6  1  0
  6  7  1  0
  7  8  2  0
  8  9  1  0
  9 10  2  0
 10 11  1  0
 11 12  2  0
 11 13  1  0
 13 14  1  0
 14 15  2  0
 15 16  1  0
 16 17  2  0
 17 18  1  0
 18 19  2  0
 18 20  1  0
 20 21  2  0
 20 22  1  0
 23 22  1  6
 23 24  1  0
 24 25  1  0
 25 26  1  0
 26 27  1  0
 27 28  1  0
 28 29  2  0
 22 30  1  0
 30 31  2  0
 10 32  1  0
 32 33  2  0
 33 34  1  0
 34 35  1  0
 35 36  1  0
 33 37  1  0
 37 38  2  0
  5  3  1  0
 38  6  1  0
 38  9  1  0
 19 14  1  0
 28 23  1  0
 36 34  1  0
 30 17  1  0
M  END
>  <name>  (91) 
P118791

>  <alias>  (91) 
None

>  <smina_score_min>  (91) 
-9.214

>  <exports>  (91) 
['/opt/xchem-fragalysis-2/maxwin/BulkDock/OUTPUTS/openbind_xx01zvns2b_c2_elabs_1LOUTNY.sdf', '/opt/xchem-fragalysis-2/maxwin/BulkDock/OUTPUTS/openbind_xx01zvns2b_c2_elabs_1LSYIIV.sdf', '/opt/xchem-fragalysis-2/maxwin/openbind-hippo/xx01zvns2b/cycle_02/gnina/openbind_xx01zvns2b_c2_elabs_scored_6.2plus_products.sdf']

>  <tags>  (91) 
syndirella_placed,openbind_xx01zvns2b_c2_elabs,openbind_xx01zvns2b_c2_elabs_scored_6.2plus,syndirella_product,openbind_xx01zvns2b_c2_elabs_scored,openbind_xx01zvns2b_c2_elabs_scored_top80percent,BulkDock Fragalysis export,openbind_xx01zvns2b_c2_elabs_scored_top80percent_despaghettified

>  <subsites>  (91) 
1 - Z4590/B/203/1

>  <smiles>  (91) 
C[C@@H](C1CC1)n1ncc2c(C(=O)Nc3ccc4c(c3)C(=O)N([C@H]3CCCNC3=O)C4=O)cc(C3CC3)nc21

>  <HIPPO Pose ID>  (91) 
118791

>  <energy_score>  (91) 
-41.473478

>  <inchikey>  (91) 
OOGSICUYFMNWHA-PSLXWICFSA-N

>  <gnina_score_min>  (91) 
6.733

>  <gnina_score>  (91) 
6.263

>  <ref_mols>  (91) 
Z3468a

>  <HIPPO Compound ID>  (91) 
183048

>  <distance_score>  (91) 
1.182981

>  <rmsd(smina/fragmenstein)>  (91) 
1.317

>  <ref_pdb>  (91) 
Z3468a

>  <inspiration_score>  (91) 
None

$$$$
P118794
     RDKit          3D

 38 44  0  0  0  0  0  0  0  0999 V2000
   -4.8692    7.1057  -19.3847 C   0  0  0  0  0  0  0  0  0  0  0  0
   -3.8893    6.2516  -18.5749 C   0  0  2  0  0  0  0  0  0  0  0  0
   -3.4059    5.0753  -19.3730 C   0  0  0  0  0  0  0  0  0  0  0  0
   -2.2302    5.2077  -20.3060 C   0  0  0  0  0  0  0  0  0  0  0  0
   -2.0890    4.4320  -19.0250 C   0  0  0  0  0  0  0  0  0  0  0  0
   -4.4420    5.8349  -17.2871 N   0  0  0  0  0  0  0  0  0  0  0  0
   -3.8179    6.2108  -16.1375 N   0  0  0  0  0  0  0  0  0  0  0  0
   -4.7159    5.9157  -15.1925 C   0  0  0  0  0  0  0  0  0  0  0  0
   -5.8755    5.3113  -15.7149 C   0  0  0  0  0  0  0  0  0  0  0  0
   -7.1375    4.9180  -15.2691 C   0  0  0  0  0  0  0  0  0  0  0  0
   -7.5933    5.4413  -13.9904 C   0  0  0  0  0  0  0  0  0  0  0  0
   -7.6446    6.6070  -13.9223 O   0  0  0  0  0  0  0  0  0  0  0  0
   -7.8670    4.3623  -12.9191 N   0  0  0  0  0  0  0  0  0  0  0  0
   -8.1579    4.4878  -11.5636 C   0  0  0  0  0  0  0  0  0  0  0  0
   -8.2769    5.8145  -11.0959 C   0  0  0  0  0  0  0  0  0  0  0  0
   -8.4239    6.1070   -9.7606 C   0  0  0  0  0  0  0  0  0  0  0  0
   -8.4686    5.0404   -8.9046 C   0  0  0  0  0  0  0  0  0  0  0  0
   -8.4176    3.7151   -9.3366 C   0  0  0  0  0  0  0  0  0  0  0  0
   -8.2558    3.4021  -10.6808 C   0  0  0  0  0  0  0  0  0  0  0  0
   -8.4365    2.8851   -8.1077 C   0  0  0  0  0  0  0  0  0  0  0  0
   -8.5245    1.6769   -8.0954 O   0  0  0  0  0  0  0  0  0  0  0  0
   -8.2883    3.7750   -7.0392 N   0  0  0  0  0  0  0  0  0  0  0  0
   -8.1087    3.4695   -5.6244 C   0  0  1  0  0  0  0  0  0  0  0  0
   -7.1459    4.4985   -4.9953 C   0  0  0  0  0  0  0  0  0  0  0  0
   -6.9459    4.2874   -3.5155 C   0  0  0  0  0  0  0  0  0  0  0  0
   -8.2657    4.2121   -2.7963 C   0  0  0  0  0  0  0  0  0  0  0  0
   -8.3672    4.4538   -1.5963 O   0  0  0  0  0  0  0  0  0  0  0  0
   -9.3510    3.8369   -3.5401 N   0  0  0  0  0  0  0  0  0  0  0  0
   -9.4334    3.5490   -4.8873 C   0  0  0  0  0  0  0  0  0  0  0  0
  -10.5267    3.4136   -5.4258 O   0  0  0  0  0  0  0  0  0  0  0  0
   -8.5084    5.1313   -7.4417 C   0  0  0  0  0  0  0  0  0  0  0  0
   -8.0564    4.4085  -16.1794 C   0  0  0  0  0  0  0  0  0  0  0  0
   -7.7046    4.3357  -17.5309 C   0  0  0  0  0  0  0  0  0  0  0  0
   -8.6663    3.8542  -18.5892 C   0  0  0  0  0  0  0  0  0  0  0  0
   -9.3411    2.5241  -18.4042 C   0  0  0  0  0  0  0  0  0  0  0  0
  -10.1596    3.7837  -18.4068 C   0  0  0  0  0  0  0  0  0  0  0  0
   -6.4950    4.7412  -17.9935 N   0  0  0  0  0  0  0  0  0  0  0  0
   -5.6488    5.2218  -17.0708 C   0  0  0  0  0  0  0  0  0  0  0  0
  2  1  1  6
  2  3  1  0
  3  4  1  0
  4  5  1  0
  2  6  1  0
  6  7  1  0
  7  8  2  0
  8  9  1  0
  9 10  2  0
 10 11  1  0
 11 12  2  0
 11 13  1  0
 13 14  1  0
 14 15  2  0
 15 16  1  0
 16 17  2  0
 17 18  1  0
 18 19  2  0
 18 20  1  0
 20 21  2  0
 20 22  1  0
 23 22  1  6
 23 24  1  0
 24 25  1  0
 25 26  1  0
 26 27  2  0
 26 28  1  0
 28 29  1  0
 29 30  2  0
 22 31  1  0
 10 32  1  0
 32 33  2  0
 33 34  1  0
 34 35  1  0
 35 36  1  0
 33 37  1  0
 37 38  2  0
  5  3  1  0
 38  6  1  0
 38  9  1  0
 19 14  1  0
 29 23  1  0
 36 34  1  0
 31 17  1  0
M  END
>  <name>  (92) 
P118794

>  <alias>  (92) 
None

>  <smina_score_min>  (92) 
-9.684

>  <exports>  (92) 
['/opt/xchem-fragalysis-2/maxwin/BulkDock/OUTPUTS/openbind_xx01zvns2b_c2_elabs_1LOUTNY.sdf', '/opt/xchem-fragalysis-2/maxwin/BulkDock/OUTPUTS/openbind_xx01zvns2b_c2_elabs_1LSYIIV.sdf', '/opt/xchem-fragalysis-2/maxwin/openbind-hippo/xx01zvns2b/cycle_02/gnina/openbind_xx01zvns2b_c2_elabs_scored_6.2plus_products.sdf']

>  <tags>  (92) 
syndirella_placed,openbind_xx01zvns2b_c2_elabs,openbind_xx01zvns2b_c2_elabs_scored_6.2plus,syndirella_product,openbind_xx01zvns2b_c2_elabs_scored,openbind_xx01zvns2b_c2_elabs_scored_top80percent,BulkDock Fragalysis export,openbind_xx01zvns2b_c2_elabs_scored_top80percent_despaghettified

>  <subsites>  (92) 
1 - Z4590/B/203/1

>  <smiles>  (92) 
C[C@H](C1CC1)n1ncc2c(C(=O)Nc3ccc4c(c3)C(=O)N([C@H]3CCC(=O)NC3=O)C4)cc(C3CC3)nc21

>  <HIPPO Pose ID>  (92) 
118794

>  <energy_score>  (92) 
-57.616225

>  <inchikey>  (92) 
VORNFTKWNVFLRW-FATZIPQQSA-N

>  <gnina_score_min>  (92) 
6.714

>  <gnina_score>  (92) 
6.701

>  <ref_mols>  (92) 
Z3468a

>  <HIPPO Compound ID>  (92) 
183049

>  <distance_score>  (92) 
0.943393

>  <rmsd(smina/fragmenstein)>  (92) 
0.859

>  <ref_pdb>  (92) 
Z3468a

>  <inspiration_score>  (92) 
None

$$$$
P118796
     RDKit          3D

 38 44  0  0  0  0  0  0  0  0999 V2000
   -4.8639    7.1232  -19.1972 C   0  0  0  0  0  0  0  0  0  0  0  0
   -3.9035    6.2429  -18.3905 C   0  0  2  0  0  0  0  0  0  0  0  0
   -3.4207    5.0808  -19.2120 C   0  0  0  0  0  0  0  0  0  0  0  0
   -2.0921    4.4415  -18.9007 C   0  0  0  0  0  0  0  0  0  0  0  0
   -2.2624    5.2389  -20.1641 C   0  0  0  0  0  0  0  0  0  0  0  0
   -4.4808    5.8056  -17.1179 N   0  0  0  0  0  0  0  0  0  0  0  0
   -3.8821    6.1615  -15.9486 N   0  0  0  0  0  0  0  0  0  0  0  0
   -4.7923    5.8338  -15.0249 C   0  0  0  0  0  0  0  0  0  0  0  0
   -5.9390    5.2299  -15.5767 C   0  0  0  0  0  0  0  0  0  0  0  0
   -7.2031    4.8040  -15.1601 C   0  0  0  0  0  0  0  0  0  0  0  0
   -7.7066    5.2895  -13.8812 C   0  0  0  0  0  0  0  0  0  0  0  0
   -7.9646    6.4301  -13.8624 O   0  0  0  0  0  0  0  0  0  0  0  0
   -7.7608    4.2292  -12.7535 N   0  0  0  0  0  0  0  0  0  0  0  0
   -8.0425    4.3666  -11.3937 C   0  0  0  0  0  0  0  0  0  0  0  0
   -8.1434    5.7037  -10.9452 C   0  0  0  0  0  0  0  0  0  0  0  0
   -8.3806    6.0128   -9.6273 C   0  0  0  0  0  0  0  0  0  0  0  0
   -8.5302    4.9469   -8.7824 C   0  0  0  0  0  0  0  0  0  0  0  0
   -8.4455    3.6201   -9.1588 C   0  0  0  0  0  0  0  0  0  0  0  0
   -8.1891    3.2924  -10.4909 C   0  0  0  0  0  0  0  0  0  0  0  0
   -8.5958    2.8418   -7.9020 C   0  0  0  0  0  0  0  0  0  0  0  0
   -8.6089    1.6285   -7.8783 O   0  0  0  0  0  0  0  0  0  0  0  0
   -8.7236    3.7689   -6.8765 N   0  0  0  0  0  0  0  0  0  0  0  0
   -8.2908    3.6529   -5.5375 C   0  0  0  0  0  0  0  0  0  0  0  0
   -7.0382    4.2195   -5.2061 C   0  0  0  0  0  0  0  0  0  0  0  0
   -6.7280    4.5867   -3.8970 C   0  0  0  0  0  0  0  0  0  0  0  0
   -7.6865    4.4176   -2.9147 C   0  0  0  0  0  0  0  0  0  0  0  0
   -7.4200    4.7982   -1.6585 F   0  0  0  0  0  0  0  0  0  0  0  0
   -8.9256    3.8684   -3.2180 C   0  0  0  0  0  0  0  0  0  0  0  0
   -9.2318    3.4715   -4.5278 C   0  0  0  0  0  0  0  0  0  0  0  0
   -8.7278    5.0430   -7.3653 C   0  0  0  0  0  0  0  0  0  0  0  0
   -8.7987    6.1170   -6.7890 O   0  0  0  0  0  0  0  0  0  0  0  0
   -8.1055    4.3354  -16.1115 C   0  0  0  0  0  0  0  0  0  0  0  0
   -7.7331    4.3128  -17.4592 C   0  0  0  0  0  0  0  0  0  0  0  0
   -8.6730    3.8685  -18.5518 C   0  0  0  0  0  0  0  0  0  0  0  0
   -9.3395    2.5271  -18.4302 C   0  0  0  0  0  0  0  0  0  0  0  0
  -10.1683    3.7799  -18.4031 C   0  0  0  0  0  0  0  0  0  0  0  0
   -6.5177    4.7338  -17.8856 N   0  0  0  0  0  0  0  0  0  0  0  0
   -5.6903    5.1868  -16.9333 C   0  0  0  0  0  0  0  0  0  0  0  0
  2  1  1  6
  2  3  1  0
  3  4  1  0
  4  5  1  0
  2  6  1  0
  6  7  1  0
  7  8  2  0
  8  9  1  0
  9 10  2  0
 10 11  1  0
 11 12  2  0
 11 13  1  0
 13 14  1  0
 14 15  2  0
 15 16  1  0
 16 17  2  0
 17 18  1  0
 18 19  2  0
 18 20  1  0
 20 21  2  0
 20 22  1  0
 22 23  1  0
 23 24  2  0
 24 25  1  0
 25 26  2  0
 26 27  1  0
 26 28  1  0
 28 29  2  0
 22 30  1  0
 30 31  2  0
 10 32  1  0
 32 33  2  0
 33 34  1  0
 34 35  1  0
 35 36  1  0
 33 37  1  0
 37 38  2  0
  5  3  1  0
 38  6  1  0
 38  9  1  0
 19 14  1  0
 29 23  1  0
 36 34  1  0
 30 17  1  0
M  END
>  <name>  (93) 
P118796

>  <alias>  (93) 
None

>  <smina_score_min>  (93) 
-9.832

>  <exports>  (93) 
['/opt/xchem-fragalysis-2/maxwin/BulkDock/OUTPUTS/openbind_xx01zvns2b_c2_elabs_1LOUTNY.sdf', '/opt/xchem-fragalysis-2/maxwin/BulkDock/OUTPUTS/openbind_xx01zvns2b_c2_elabs_1LSYIIV.sdf', '/opt/xchem-fragalysis-2/maxwin/openbind-hippo/xx01zvns2b/cycle_02/gnina/openbind_xx01zvns2b_c2_elabs_scored_6.2plus_products.sdf']

>  <tags>  (93) 
syndirella_placed,openbind_xx01zvns2b_c2_elabs,openbind_xx01zvns2b_c2_elabs_scored_6.2plus,syndirella_product,openbind_xx01zvns2b_c2_elabs_scored,openbind_xx01zvns2b_c2_elabs_scored_top80percent,BulkDock Fragalysis export,openbind_xx01zvns2b_c2_elabs_scored_top80percent_despaghettified

>  <subsites>  (93) 
1 - Z4590/B/203/1

>  <smiles>  (93) 
C[C@H](C1CC1)n1ncc2c(C(=O)Nc3ccc4c(c3)C(=O)N(c3ccc(F)cc3)C4=O)cc(C3CC3)nc21

>  <HIPPO Pose ID>  (93) 
118796

>  <energy_score>  (93) 
-16.682133

>  <inchikey>  (93) 
SFMVONKEPGIXNB-OAHLLOKOSA-N

>  <gnina_score_min>  (93) 
6.694

>  <gnina_score>  (93) 
6.739

>  <ref_mols>  (93) 
Z3468a

>  <HIPPO Compound ID>  (93) 
183050

>  <distance_score>  (93) 
0.887792

>  <rmsd(smina/fragmenstein)>  (93) 
0.602

>  <ref_pdb>  (93) 
Z3468a

>  <inspiration_score>  (93) 
None

$$$$
P118799
     RDKit          3D

 39 45  0  0  0  0  0  0  0  0999 V2000
   -5.2110    6.9205  -19.5584 C   0  0  0  0  0  0  0  0  0  0  0  0
   -4.1483    6.2035  -18.7243 C   0  0  2  0  0  0  0  0  0  0  0  0
   -3.5630    5.0368  -19.4636 C   0  0  0  0  0  0  0  0  0  0  0  0
   -2.2102    4.4968  -19.0694 C   0  0  0  0  0  0  0  0  0  0  0  0
   -2.3763    5.2205  -20.3764 C   0  0  0  0  0  0  0  0  0  0  0  0
   -4.6371    5.8237  -17.3994 N   0  0  0  0  0  0  0  0  0  0  0  0
   -3.9771    6.3010  -16.3067 N   0  0  0  0  0  0  0  0  0  0  0  0
   -4.8222    6.0546  -15.3046 C   0  0  0  0  0  0  0  0  0  0  0  0
   -5.9789    5.3769  -15.7298 C   0  0  0  0  0  0  0  0  0  0  0  0
   -7.1921    4.9646  -15.1832 C   0  0  0  0  0  0  0  0  0  0  0  0
   -7.5634    5.4863  -13.8755 C   0  0  0  0  0  0  0  0  0  0  0  0
   -7.5976    6.6473  -13.7636 O   0  0  0  0  0  0  0  0  0  0  0  0
   -7.8363    4.3750  -12.8442 N   0  0  0  0  0  0  0  0  0  0  0  0
   -8.1056    4.4529  -11.4869 C   0  0  0  0  0  0  0  0  0  0  0  0
   -8.1202    5.7437  -10.9071 C   0  0  0  0  0  0  0  0  0  0  0  0
   -8.3370    5.9288   -9.5559 C   0  0  0  0  0  0  0  0  0  0  0  0
   -8.5404    4.7899   -8.8250 C   0  0  0  0  0  0  0  0  0  0  0  0
   -8.5364    3.5159   -9.3653 C   0  0  0  0  0  0  0  0  0  0  0  0
   -8.3180    3.3062  -10.7141 C   0  0  0  0  0  0  0  0  0  0  0  0
   -8.7073    2.5942   -8.2427 C   0  0  0  0  0  0  0  0  0  0  0  0
   -8.7629    1.3901   -8.3669 O   0  0  0  0  0  0  0  0  0  0  0  0
   -8.7236    3.3728   -7.1106 N   0  0  0  0  0  0  0  0  0  0  0  0
   -8.5686    2.8842   -5.7656 C   0  0  1  0  0  0  0  0  0  0  0  0
   -7.3541    3.4876   -5.0453 C   0  0  0  0  0  0  0  0  0  0  0  0
   -7.5565    4.7056   -4.1697 C   0  0  0  0  0  0  0  0  0  0  0  0
   -8.7669    4.5667   -3.3147 C   0  0  0  0  0  0  0  0  0  0  0  0
   -8.9199    5.2142   -2.2818 O   0  0  0  0  0  0  0  0  0  0  0  0
   -9.7358    3.7235   -3.7751 N   0  0  0  0  0  0  0  0  0  0  0  0
   -9.8404    3.0565   -4.9762 C   0  0  0  0  0  0  0  0  0  0  0  0
  -10.9368    2.6708   -5.3698 O   0  0  0  0  0  0  0  0  0  0  0  0
   -8.7392    4.6930   -7.4010 C   0  0  0  0  0  0  0  0  0  0  0  0
   -8.8588    5.6536   -6.6651 O   0  0  0  0  0  0  0  0  0  0  0  0
   -8.1150    4.2995  -15.9770 C   0  0  0  0  0  0  0  0  0  0  0  0
   -7.8219    4.1078  -17.3260 C   0  0  0  0  0  0  0  0  0  0  0  0
   -8.8351    3.4096  -18.2025 C   0  0  0  0  0  0  0  0  0  0  0  0
  -10.2799    3.8586  -18.2503 C   0  0  0  0  0  0  0  0  0  0  0  0
   -9.3661    4.1444  -19.3973 C   0  0  0  0  0  0  0  0  0  0  0  0
   -6.6724    4.5538  -17.9104 N   0  0  0  0  0  0  0  0  0  0  0  0
   -5.8073    5.1729  -17.0842 C   0  0  0  0  0  0  0  0  0  0  0  0
  2  1  1  6
  2  3  1  0
  3  4  1  0
  4  5  1  0
  2  6  1  0
  6  7  1  0
  7  8  2  0
  8  9  1  0
  9 10  2  0
 10 11  1  0
 11 12  2  0
 11 13  1  0
 13 14  1  0
 14 15  2  0
 15 16  1  0
 16 17  2  0
 17 18  1  0
 18 19  2  0
 18 20  1  0
 20 21  2  0
 20 22  1  0
 23 22  1  6
 23 24  1  0
 24 25  1  0
 25 26  1  0
 26 27  2  0
 26 28  1  0
 28 29  1  0
 29 30  2  0
 22 31  1  0
 31 32  2  0
 10 33  1  0
 33 34  2  0
 34 35  1  0
 35 36  1  0
 36 37  1  0
 34 38  1  0
 38 39  2  0
  5  3  1  0
 39  6  1  0
 39  9  1  0
 19 14  1  0
 29 23  1  0
 37 35  1  0
 31 17  1  0
M  END
>  <name>  (94) 
P118799

>  <alias>  (94) 
None

>  <smina_score_min>  (94) 
-9.207

>  <exports>  (94) 
['/opt/xchem-fragalysis-2/maxwin/BulkDock/OUTPUTS/openbind_xx01zvns2b_c2_elabs_1LOUTNY.sdf', '/opt/xchem-fragalysis-2/maxwin/BulkDock/OUTPUTS/openbind_xx01zvns2b_c2_elabs_1LSYIIV.sdf', '/opt/xchem-fragalysis-2/maxwin/openbind-hippo/xx01zvns2b/cycle_02/gnina/openbind_xx01zvns2b_c2_elabs_scored_6.2plus_products.sdf']

>  <tags>  (94) 
syndirella_placed,openbind_xx01zvns2b_c2_elabs,openbind_xx01zvns2b_c2_elabs_scored_6.2plus,syndirella_product,openbind_xx01zvns2b_c2_elabs_scored,openbind_xx01zvns2b_c2_elabs_scored_top80percent,BulkDock Fragalysis export,openbind_xx01zvns2b_c2_elabs_scored_top80percent_despaghettified

>  <subsites>  (94) 
1 - Z4590/B/203/1

>  <smiles>  (94) 
C[C@H](C1CC1)n1ncc2c(C(=O)Nc3ccc4c(c3)C(=O)N([C@H]3CCC(=O)NC3=O)C4=O)cc(C3CC3)nc21

>  <HIPPO Pose ID>  (94) 
118799

>  <energy_score>  (94) 
-53.403825

>  <inchikey>  (94) 
HYLRLWRNOGZWFA-DMZKTXOQSA-N

>  <gnina_score_min>  (94) 
6.755

>  <gnina_score>  (94) 
6.688

>  <ref_mols>  (94) 
Z3468a

>  <HIPPO Compound ID>  (94) 
183053

>  <distance_score>  (94) 
0.866425

>  <rmsd(smina/fragmenstein)>  (94) 
0.734

>  <ref_pdb>  (94) 
Z3468a

>  <inspiration_score>  (94) 
None

$$$$
P118802
     RDKit          3D

 39 45  0  0  0  0  0  0  0  0999 V2000
   -4.7683    7.0337  -19.4827 C   0  0  0  0  0  0  0  0  0  0  0  0
   -4.1340    5.7802  -18.8752 C   0  0  1  0  0  0  0  0  0  0  0  0
   -2.6433    5.8106  -19.0409 C   0  0  0  0  0  0  0  0  0  0  0  0
   -1.8240    4.5606  -18.8922 C   0  0  0  0  0  0  0  0  0  0  0  0
   -2.0112    5.1784  -20.2525 C   0  0  0  0  0  0  0  0  0  0  0  0
   -4.5454    5.6188  -17.4820 N   0  0  0  0  0  0  0  0  0  0  0  0
   -3.7972    6.0454  -16.4327 N   0  0  0  0  0  0  0  0  0  0  0  0
   -4.6116    5.8532  -15.3868 C   0  0  0  0  0  0  0  0  0  0  0  0
   -5.8703    5.3274  -15.7581 C   0  0  0  0  0  0  0  0  0  0  0  0
   -7.1028    5.0169  -15.1659 C   0  0  0  0  0  0  0  0  0  0  0  0
   -7.2208    5.3936  -13.7500 C   0  0  0  0  0  0  0  0  0  0  0  0
   -6.9089    6.4927  -13.5036 O   0  0  0  0  0  0  0  0  0  0  0  0
   -7.6410    4.2380  -12.8142 N   0  0  0  0  0  0  0  0  0  0  0  0
   -7.6727    4.1662  -11.4236 C   0  0  0  0  0  0  0  0  0  0  0  0
   -6.8630    5.1057  -10.7476 C   0  0  0  0  0  0  0  0  0  0  0  0
   -6.6982    5.0683   -9.3753 C   0  0  0  0  0  0  0  0  0  0  0  0
   -7.4166    4.1164   -8.7011 C   0  0  0  0  0  0  0  0  0  0  0  0
   -8.3150    3.2468   -9.3165 C   0  0  0  0  0  0  0  0  0  0  0  0
   -8.3950    3.2022  -10.7070 C   0  0  0  0  0  0  0  0  0  0  0  0
   -9.1112    2.5665   -8.2445 C   0  0  0  0  0  0  0  0  0  0  0  0
   -8.6843    3.2785   -7.0233 N   0  0  0  0  0  0  0  0  0  0  0  0
   -9.6273    3.8256   -6.0554 C   0  0  1  0  0  0  0  0  0  0  0  0
   -9.6619    3.1048   -4.7416 C   0  0  0  0  0  0  0  0  0  0  0  0
   -8.4602    3.4493   -3.8993 C   0  0  0  0  0  0  0  0  0  0  0  0
   -8.3174    4.9292   -3.6727 C   0  0  0  0  0  0  0  0  0  0  0  0
   -7.8320    5.3448   -2.6178 O   0  0  0  0  0  0  0  0  0  0  0  0
   -8.7446    5.7604   -4.6968 N   0  0  0  0  0  0  0  0  0  0  0  0
   -8.5157    7.1844   -4.5420 C   0  0  0  0  0  0  0  0  0  0  0  0
   -9.4506    5.3493   -5.8300 C   0  0  0  0  0  0  0  0  0  0  0  0
   -9.8793    6.1625   -6.6495 O   0  0  0  0  0  0  0  0  0  0  0  0
   -7.5314    4.0096   -7.2563 C   0  0  0  0  0  0  0  0  0  0  0  0
   -6.8268    4.6048   -6.4587 O   0  0  0  0  0  0  0  0  0  0  0  0
   -8.1370    4.5470  -15.9847 C   0  0  0  0  0  0  0  0  0  0  0  0
   -7.9114    4.4240  -17.3684 C   0  0  0  0  0  0  0  0  0  0  0  0
   -8.9418    4.0073  -18.3849 C   0  0  0  0  0  0  0  0  0  0  0  0
  -10.3863    3.7340  -18.1203 C   0  0  0  0  0  0  0  0  0  0  0  0
   -9.4372    2.5903  -18.3386 C   0  0  0  0  0  0  0  0  0  0  0  0
   -6.7250    4.7182  -17.9401 N   0  0  0  0  0  0  0  0  0  0  0  0
   -5.7771    5.1606  -17.1152 C   0  0  0  0  0  0  0  0  0  0  0  0
  2  1  1  1
  2  3  1  0
  3  4  1  0
  4  5  1  0
  2  6  1  0
  6  7  1  0
  7  8  2  0
  8  9  1  0
  9 10  2  0
 10 11  1  0
 11 12  2  0
 11 13  1  0
 13 14  1  0
 14 15  2  0
 15 16  1  0
 16 17  2  0
 17 18  1  0
 18 19  2  0
 18 20  1  0
 20 21  1  0
 22 21  1  6
 22 23  1  0
 23 24  1  0
 24 25  1  0
 25 26  2  0
 25 27  1  0
 27 28  1  0
 27 29  1  0
 29 30  2  0
 21 31  1  0
 31 32  2  0
 10 33  1  0
 33 34  2  0
 34 35  1  0
 35 36  1  0
 36 37  1  0
 34 38  1  0
 38 39  2  0
  5  3  1  0
 39  6  1  0
 39  9  1  0
 19 14  1  0
 29 22  1  0
 37 35  1  0
 31 17  1  0
M  END
>  <name>  (95) 
P118802

>  <alias>  (95) 
None

>  <smina_score_min>  (95) 
-9.058

>  <exports>  (95) 
['/opt/xchem-fragalysis-2/maxwin/BulkDock/OUTPUTS/openbind_xx01zvns2b_c2_elabs_1LOUTNY.sdf', '/opt/xchem-fragalysis-2/maxwin/BulkDock/OUTPUTS/openbind_xx01zvns2b_c2_elabs_1LSYIIV.sdf', '/opt/xchem-fragalysis-2/maxwin/openbind-hippo/xx01zvns2b/cycle_02/gnina/openbind_xx01zvns2b_c2_elabs_scored_6.2plus_products.sdf']

>  <tags>  (95) 
syndirella_placed,openbind_xx01zvns2b_c2_elabs,openbind_xx01zvns2b_c2_elabs_scored_6.2plus,syndirella_product,openbind_xx01zvns2b_c2_elabs_scored,openbind_xx01zvns2b_c2_elabs_scored_top80percent,BulkDock Fragalysis export,openbind_xx01zvns2b_c2_elabs_scored_top80percent_despaghettified

>  <subsites>  (95) 
1 - Z4590/B/203/1

>  <smiles>  (95) 
C[C@@H](C1CC1)n1ncc2c(C(=O)Nc3ccc4c(c3)CN([C@H]3CCC(=O)N(C)C3=O)C4=O)cc(C3CC3)nc21

>  <HIPPO Pose ID>  (95) 
118802

>  <energy_score>  (95) 
-6.384898

>  <inchikey>  (95) 
MHMADFMSVGBOLP-OWJWWREXSA-N

>  <gnina_score_min>  (95) 
6.84

>  <gnina_score>  (95) 
6.684

>  <ref_mols>  (95) 
Z3468a

>  <HIPPO Compound ID>  (95) 
183054

>  <distance_score>  (95) 
0.837799

>  <rmsd(smina/fragmenstein)>  (95) 
0.574

>  <ref_pdb>  (95) 
Z3468a

>  <inspiration_score>  (95) 
None

$$$$
P118803
     RDKit          3D

 39 45  0  0  0  0  0  0  0  0999 V2000
   -4.8771    7.1097  -19.2869 C   0  0  0  0  0  0  0  0  0  0  0  0
   -3.9053    6.2470  -18.4754 C   0  0  2  0  0  0  0  0  0  0  0  0
   -3.4238    5.0737  -19.2796 C   0  0  0  0  0  0  0  0  0  0  0  0
   -2.0973    4.4373  -18.9542 C   0  0  0  0  0  0  0  0  0  0  0  0
   -2.2624    5.2157  -20.2302 C   0  0  0  0  0  0  0  0  0  0  0  0
   -4.4667    5.8286  -17.1904 N   0  0  0  0  0  0  0  0  0  0  0  0
   -3.8472    6.1991  -16.0367 N   0  0  0  0  0  0  0  0  0  0  0  0
   -4.7525    5.9086  -15.0965 C   0  0  0  0  0  0  0  0  0  0  0  0
   -5.9157    5.3139  -15.6240 C   0  0  0  0  0  0  0  0  0  0  0  0
   -7.1841    4.9276  -15.1818 C   0  0  0  0  0  0  0  0  0  0  0  0
   -7.6384    5.4493  -13.8956 C   0  0  0  0  0  0  0  0  0  0  0  0
   -7.6870    6.6158  -13.8284 O   0  0  0  0  0  0  0  0  0  0  0  0
   -7.8803    4.3713  -12.8124 N   0  0  0  0  0  0  0  0  0  0  0  0
   -8.1304    4.5004  -11.4453 C   0  0  0  0  0  0  0  0  0  0  0  0
   -8.1606    5.8225  -10.9514 C   0  0  0  0  0  0  0  0  0  0  0  0
   -8.2630    6.1002   -9.6042 C   0  0  0  0  0  0  0  0  0  0  0  0
   -8.3622    5.0279   -8.7577 C   0  0  0  0  0  0  0  0  0  0  0  0
   -8.4057    3.7113   -9.2189 C   0  0  0  0  0  0  0  0  0  0  0  0
   -8.2771    3.4116  -10.5723 C   0  0  0  0  0  0  0  0  0  0  0  0
   -8.5283    2.8587   -8.0122 C   0  0  0  0  0  0  0  0  0  0  0  0
   -8.7177    1.6617   -8.0277 O   0  0  0  0  0  0  0  0  0  0  0  0
   -8.3996    3.7106   -6.9110 N   0  0  0  0  0  0  0  0  0  0  0  0
   -8.2360    3.3312   -5.5094 C   0  0  2  0  0  0  0  0  0  0  0  0
   -9.5521    3.4476   -4.7547 C   0  0  0  0  0  0  0  0  0  0  0  0
   -9.3189    3.8654   -3.3131 C   0  0  0  0  0  0  0  0  0  0  0  0
   -8.5891    5.1738   -3.2313 C   0  0  0  0  0  0  0  0  0  0  0  0
   -8.8483    5.9972   -2.3557 O   0  0  0  0  0  0  0  0  0  0  0  0
   -7.5562    5.3089   -4.1324 N   0  0  0  0  0  0  0  0  0  0  0  0
   -6.6163    6.3868   -3.8914 C   0  0  0  0  0  0  0  0  0  0  0  0
   -7.1227    4.2078   -4.8536 C   0  0  0  0  0  0  0  0  0  0  0  0
   -5.9160    4.0191   -5.0249 O   0  0  0  0  0  0  0  0  0  0  0  0
   -8.3895    5.0935   -7.2881 C   0  0  0  0  0  0  0  0  0  0  0  0
   -8.0994    4.4278  -16.1045 C   0  0  0  0  0  0  0  0  0  0  0  0
   -7.7378    4.3555  -17.4553 C   0  0  0  0  0  0  0  0  0  0  0  0
   -8.6897    3.8907  -18.5309 C   0  0  0  0  0  0  0  0  0  0  0  0
   -9.3386    2.5425  -18.3922 C   0  0  0  0  0  0  0  0  0  0  0  0
  -10.1814    3.7855  -18.3620 C   0  0  0  0  0  0  0  0  0  0  0  0
   -6.5225    4.7530  -17.9081 N   0  0  0  0  0  0  0  0  0  0  0  0
   -5.6798    5.2253  -16.9793 C   0  0  0  0  0  0  0  0  0  0  0  0
  2  1  1  6
  2  3  1  0
  3  4  1  0
  4  5  1  0
  2  6  1  0
  6  7  1  0
  7  8  2  0
  8  9  1  0
  9 10  2  0
 10 11  1  0
 11 12  2  0
 11 13  1  0
 13 14  1  0
 14 15  2  0
 15 16  1  0
 16 17  2  0
 17 18  1  0
 18 19  2  0
 18 20  1  0
 20 21  2  0
 20 22  1  0
 23 22  1  6
 23 24  1  0
 24 25  1  0
 25 26  1  0
 26 27  2  0
 26 28  1  0
 28 29  1  0
 28 30  1  0
 30 31  2  0
 22 32  1  0
 10 33  1  0
 33 34  2  0
 34 35  1  0
 35 36  1  0
 36 37  1  0
 34 38  1  0
 38 39  2  0
  5  3  1  0
 39  6  1  0
 39  9  1  0
 19 14  1  0
 30 23  1  0
 37 35  1  0
 32 17  1  0
M  END
>  <name>  (96) 
P118803

>  <alias>  (96) 
None

>  <smina_score_min>  (96) 
-9.478

>  <exports>  (96) 
['/opt/xchem-fragalysis-2/maxwin/BulkDock/OUTPUTS/openbind_xx01zvns2b_c2_elabs_1LOUTNY.sdf', '/opt/xchem-fragalysis-2/maxwin/BulkDock/OUTPUTS/openbind_xx01zvns2b_c2_elabs_1LSYIIV.sdf', '/opt/xchem-fragalysis-2/maxwin/openbind-hippo/xx01zvns2b/cycle_02/gnina/openbind_xx01zvns2b_c2_elabs_scored_6.2plus_products.sdf']

>  <tags>  (96) 
syndirella_placed,openbind_xx01zvns2b_c2_elabs,openbind_xx01zvns2b_c2_elabs_scored_6.2plus,syndirella_product,openbind_xx01zvns2b_c2_elabs_scored,openbind_xx01zvns2b_c2_elabs_scored_top80percent,BulkDock Fragalysis export,openbind_xx01zvns2b_c2_elabs_scored_top80percent_despaghettified

>  <subsites>  (96) 
1 - Z4590/B/203/1

>  <smiles>  (96) 
C[C@H](C1CC1)n1ncc2c(C(=O)Nc3ccc4c(c3)C(=O)N([C@@H]3CCC(=O)N(C)C3=O)C4)cc(C3CC3)nc21

>  <HIPPO Pose ID>  (96) 
118803

>  <energy_score>  (96) 
-40.381456

>  <inchikey>  (96) 
SYBMRKFNSYZITP-OYLFLEFRSA-N

>  <gnina_score_min>  (96) 
6.699

>  <gnina_score>  (96) 
6.721

>  <ref_mols>  (96) 
Z3468a

>  <HIPPO Compound ID>  (96) 
183055

>  <distance_score>  (96) 
0.912591

>  <rmsd(smina/fragmenstein)>  (96) 
0.79

>  <ref_pdb>  (96) 
Z3468a

>  <inspiration_score>  (96) 
None

$$$$
P125312
     RDKit          3D

 30 35  0  0  0  0  0  0  0  0999 V2000
   -4.8119    7.7804  -19.3244 C   0  0  0  0  0  0  0  0  0  0  0  0
   -5.0429    6.2627  -19.2585 C   0  0  1  0  0  0  0  0  0  0  0  0
   -4.0581    5.5147  -20.1301 C   0  0  0  0  0  0  0  0  0  0  0  0
   -4.5571    4.5854  -21.2175 C   0  0  0  0  0  0  0  0  0  0  0  0
   -3.9145    5.8818  -21.5953 C   0  0  0  0  0  0  0  0  0  0  0  0
   -5.0481    5.8132  -17.8579 N   0  0  0  0  0  0  0  0  0  0  0  0
   -4.1203    6.2655  -16.9717 N   0  0  0  0  0  0  0  0  0  0  0  0
   -4.7009    6.0478  -15.7826 C   0  0  0  0  0  0  0  0  0  0  0  0
   -5.9533    5.4055  -15.8864 C   0  0  0  0  0  0  0  0  0  0  0  0
   -7.0060    4.9970  -15.0529 C   0  0  0  0  0  0  0  0  0  0  0  0
   -6.9959    5.3823  -13.6177 C   0  0  0  0  0  0  0  0  0  0  0  0
   -6.5596    6.4342  -13.3532 O   0  0  0  0  0  0  0  0  0  0  0  0
   -7.5932    4.2839  -12.7024 N   0  0  0  0  0  0  0  0  0  0  0  0
   -7.8556    4.2901  -11.3307 C   0  0  0  0  0  0  0  0  0  0  0  0
   -7.6206    5.4406  -10.5593 C   0  0  0  0  0  0  0  0  0  0  0  0
   -7.8663    5.4488   -9.1822 C   0  0  0  0  0  0  0  0  0  0  0  0
   -8.3392    4.2911   -8.5942 C   0  0  0  0  0  0  0  0  0  0  0  0
   -8.5806    3.1491   -9.3527 C   0  0  0  0  0  0  0  0  0  0  0  0
   -8.3530    3.1315  -10.7233 C   0  0  0  0  0  0  0  0  0  0  0  0
   -9.1080    2.0669   -8.4611 C   0  0  0  0  0  0  0  0  0  0  0  0
   -8.9751    2.5957   -7.0861 N   0  0  0  0  0  0  0  0  0  0  0  0
  -10.0806    2.2489   -6.2175 C   0  0  0  0  0  0  0  0  0  0  0  0
   -8.6898    4.0324   -7.1645 C   0  0  0  0  0  0  0  0  0  0  0  0
   -8.0898    4.3439  -15.6556 C   0  0  0  0  0  0  0  0  0  0  0  0
   -8.0890    4.1130  -17.0368 C   0  0  0  0  0  0  0  0  0  0  0  0
   -9.1513    3.2514  -17.6581 C   0  0  0  0  0  0  0  0  0  0  0  0
  -10.2733    3.8222  -18.4871 C   0  0  0  0  0  0  0  0  0  0  0  0
   -9.1770    3.0458  -19.1498 C   0  0  0  0  0  0  0  0  0  0  0  0
   -7.1222    4.5805  -17.8534 N   0  0  0  0  0  0  0  0  0  0  0  0
   -6.1049    5.1945  -17.2431 C   0  0  0  0  0  0  0  0  0  0  0  0
  2  1  1  1
  2  3  1  0
  3  4  1  0
  4  5  1  0
  2  6  1  0
  6  7  1  0
  7  8  2  0
  8  9  1  0
  9 10  2  0
 10 11  1  0
 11 12  2  0
 11 13  1  0
 13 14  1  0
 14 15  2  0
 15 16  1  0
 16 17  2  0
 17 18  1  0
 18 19  2  0
 18 20  1  0
 20 21  1  0
 21 22  1  0
 21 23  1  0
 10 24  1  0
 24 25  2  0
 25 26  1  0
 26 27  1  0
 27 28  1  0
 25 29  1  0
 29 30  2  0
  5  3  1  0
 30  6  1  0
 30  9  1  0
 19 14  1  0
 28 26  1  0
 23 17  1  0
M  END
>  <name>  (97) 
P125312

>  <alias>  (97) 
None

>  <smina_score_min>  (97) 
-9.052

>  <exports>  (97) 
['/opt/xchem-fragalysis-2/maxwin/BulkDock/OUTPUTS/openbind_xx01zvns2b_c2_elabs_1LOUTNY.sdf', '/opt/xchem-fragalysis-2/maxwin/BulkDock/OUTPUTS/openbind_xx01zvns2b_c2_elabs_1LSYIIV.sdf', '/opt/xchem-fragalysis-2/maxwin/openbind-hippo/xx01zvns2b/cycle_02/gnina/openbind_xx01zvns2b_c2_elabs_scored_6.2plus_products.sdf']

>  <tags>  (97) 
syndirella_placed,openbind_xx01zvns2b_c2_elabs,openbind_xx01zvns2b_c2_elabs_scored_6.2plus,syndirella_product,openbind_xx01zvns2b_c2_elabs_scored,openbind_xx01zvns2b_c2_elabs_scored_top80percent,BulkDock Fragalysis export,openbind_xx01zvns2b_c2_elabs_scored_top80percent_despaghettified

>  <subsites>  (97) 
1 - Z4590/B/203/1

>  <smiles>  (97) 
C[C@@H](C1CC1)n1ncc2c(C(=O)Nc3ccc4c(c3)CN(C)C4)cc(C3CC3)nc21

>  <HIPPO Pose ID>  (97) 
125312

>  <energy_score>  (97) 
-51.567172

>  <inchikey>  (97) 
RXJFSHPQAJOLIF-AWEZNQCLSA-N

>  <gnina_score_min>  (97) 
6.494

>  <gnina_score>  (97) 
6.338

>  <ref_mols>  (97) 
Z3559a

>  <HIPPO Compound ID>  (97) 
178504

>  <distance_score>  (97) 
0.511212

>  <rmsd(smina/fragmenstein)>  (97) 
0.974

>  <ref_pdb>  (97) 
Z3559a

>  <inspiration_score>  (97) 
None

$$$$
P125315
     RDKit          3D

 30 35  0  0  0  0  0  0  0  0999 V2000
   -4.5061    5.1405  -20.0710 C   0  0  0  0  0  0  0  0  0  0  0  0
   -5.1481    6.2048  -19.1967 C   0  0  2  0  0  0  0  0  0  0  0  0
   -4.5739    7.6079  -19.3487 C   0  0  0  0  0  0  0  0  0  0  0  0
   -3.2169    7.8960  -19.9476 C   0  0  0  0  0  0  0  0  0  0  0  0
   -4.4629    8.2685  -20.7040 C   0  0  0  0  0  0  0  0  0  0  0  0
   -5.1882    5.7815  -17.7873 N   0  0  0  0  0  0  0  0  0  0  0  0
   -4.2418    6.1791  -16.8961 N   0  0  0  0  0  0  0  0  0  0  0  0
   -4.8102    5.9248  -15.7102 C   0  0  0  0  0  0  0  0  0  0  0  0
   -6.0825    5.3250  -15.8243 C   0  0  0  0  0  0  0  0  0  0  0  0
   -7.1406    4.9284  -14.9939 C   0  0  0  0  0  0  0  0  0  0  0  0
   -7.1081    5.2892  -13.5544 C   0  0  0  0  0  0  0  0  0  0  0  0
   -6.6794    6.3414  -13.2814 O   0  0  0  0  0  0  0  0  0  0  0  0
   -7.6797    4.1727  -12.6472 N   0  0  0  0  0  0  0  0  0  0  0  0
   -7.9222    4.1566  -11.2722 C   0  0  0  0  0  0  0  0  0  0  0  0
   -7.6127    5.2761  -10.4742 C   0  0  0  0  0  0  0  0  0  0  0  0
   -7.7997    5.2484   -9.0885 C   0  0  0  0  0  0  0  0  0  0  0  0
   -8.2884    4.0821   -8.5383 C   0  0  0  0  0  0  0  0  0  0  0  0
   -8.6083    2.9680   -9.3099 C   0  0  0  0  0  0  0  0  0  0  0  0
   -8.4410    2.9941  -10.6873 C   0  0  0  0  0  0  0  0  0  0  0  0
   -9.0498    1.8561   -8.4182 C   0  0  0  0  0  0  0  0  0  0  0  0
   -9.0738    2.4793   -7.1112 N   0  0  0  0  0  0  0  0  0  0  0  0
   -8.5248    3.7440   -7.1288 C   0  0  0  0  0  0  0  0  0  0  0  0
   -8.2535    4.4478   -6.1742 O   0  0  0  0  0  0  0  0  0  0  0  0
   -8.2763    4.3805  -15.6061 C   0  0  0  0  0  0  0  0  0  0  0  0
   -8.3329    4.2524  -17.0000 C   0  0  0  0  0  0  0  0  0  0  0  0
   -9.5965    3.7589  -17.6673 C   0  0  0  0  0  0  0  0  0  0  0  0
   -9.5275    2.5884  -18.6171 C   0  0  0  0  0  0  0  0  0  0  0  0
   -9.8204    3.9594  -19.1464 C   0  0  0  0  0  0  0  0  0  0  0  0
   -7.3217    4.6454  -17.8059 N   0  0  0  0  0  0  0  0  0  0  0  0
   -6.2608    5.1744  -17.1854 C   0  0  0  0  0  0  0  0  0  0  0  0
  2  1  1  6
  2  3  1  0
  3  4  1  0
  4  5  1  0
  2  6  1  0
  6  7  1  0
  7  8  2  0
  8  9  1  0
  9 10  2  0
 10 11  1  0
 11 12  2  0
 11 13  1  0
 13 14  1  0
 14 15  2  0
 15 16  1  0
 16 17  2  0
 17 18  1  0
 18 19  2  0
 18 20  1  0
 20 21  1  0
 21 22  1  0
 22 23  2  0
 10 24  1  0
 24 25  2  0
 25 26  1  0
 26 27  1  0
 27 28  1  0
 25 29  1  0
 29 30  2  0
  5  3  1  0
 30  6  1  0
 30  9  1  0
 19 14  1  0
 28 26  1  0
 22 17  1  0
M  END
>  <name>  (98) 
P125315

>  <alias>  (98) 
None

>  <smina_score_min>  (98) 
-9.014

>  <exports>  (98) 
['/opt/xchem-fragalysis-2/maxwin/BulkDock/OUTPUTS/openbind_xx01zvns2b_c2_elabs_1LOUTNY.sdf', '/opt/xchem-fragalysis-2/maxwin/BulkDock/OUTPUTS/openbind_xx01zvns2b_c2_elabs_1LSYIIV.sdf', '/opt/xchem-fragalysis-2/maxwin/openbind-hippo/xx01zvns2b/cycle_02/gnina/openbind_xx01zvns2b_c2_elabs_scored_6.2plus_products.sdf']

>  <tags>  (98) 
syndirella_placed,openbind_xx01zvns2b_c2_elabs,openbind_xx01zvns2b_c2_elabs_scored_6.2plus,syndirella_product,openbind_xx01zvns2b_c2_elabs_scored,openbind_xx01zvns2b_c2_elabs_scored_top80percent,BulkDock Fragalysis export,openbind_xx01zvns2b_c2_elabs_scored_top80percent_despaghettified

>  <subsites>  (98) 
1 - Z4590/B/203/1

>  <smiles>  (98) 
C[C@H](C1CC1)n1ncc2c(C(=O)Nc3ccc4c(c3)CNC4=O)cc(C3CC3)nc21

>  <HIPPO Pose ID>  (98) 
125315

>  <energy_score>  (98) 
-51.062432

>  <inchikey>  (98) 
JZBBQPKRTXWYFO-GFCCVEGCSA-N

>  <gnina_score_min>  (98) 
6.273

>  <gnina_score>  (98) 
6.311

>  <ref_mols>  (98) 
Z3559a

>  <HIPPO Compound ID>  (98) 
178483

>  <distance_score>  (98) 
0.365555

>  <rmsd(smina/fragmenstein)>  (98) 
1.033

>  <ref_pdb>  (98) 
Z3559a

>  <inspiration_score>  (98) 
None

$$$$
P125379
     RDKit          3D

 31 36  0  0  0  0  0  0  0  0999 V2000
  -10.6668    1.8432   -5.7778 C   0  0  0  0  0  0  0  0  0  0  0  0
   -9.3420    2.5292   -6.0298 C   0  0  0  0  0  0  0  0  0  0  0  0
   -9.3862    3.2624   -7.2789 N   0  0  0  0  0  0  0  0  0  0  0  0
   -8.3978    4.3437   -7.3123 C   0  0  0  0  0  0  0  0  0  0  0  0
   -8.1292    4.5267   -8.7632 C   0  0  0  0  0  0  0  0  0  0  0  0
   -7.5479    5.6006   -9.3971 C   0  0  0  0  0  0  0  0  0  0  0  0
   -7.3732    5.5159  -10.7738 C   0  0  0  0  0  0  0  0  0  0  0  0
   -7.7644    4.3695  -11.4901 C   0  0  0  0  0  0  0  0  0  0  0  0
   -7.5349    4.3129  -12.8616 N   0  0  0  0  0  0  0  0  0  0  0  0
   -6.8552    5.3285  -13.8088 C   0  0  0  0  0  0  0  0  0  0  0  0
   -6.3130    6.3367  -13.5749 O   0  0  0  0  0  0  0  0  0  0  0  0
   -6.9329    4.9270  -15.2293 C   0  0  0  0  0  0  0  0  0  0  0  0
   -8.1007    4.4275  -15.8055 C   0  0  0  0  0  0  0  0  0  0  0  0
   -8.1760    4.2691  -17.1931 C   0  0  0  0  0  0  0  0  0  0  0  0
   -9.4783    3.7883  -17.7965 C   0  0  0  0  0  0  0  0  0  0  0  0
   -9.7535    3.9330  -19.2689 C   0  0  0  0  0  0  0  0  0  0  0  0
   -9.4773    2.5766  -18.6929 C   0  0  0  0  0  0  0  0  0  0  0  0
   -7.1553    4.5976  -18.0296 N   0  0  0  0  0  0  0  0  0  0  0  0
   -6.0362    5.0426  -17.4333 C   0  0  0  0  0  0  0  0  0  0  0  0
   -5.8537    5.2162  -16.0721 C   0  0  0  0  0  0  0  0  0  0  0  0
   -4.5415    5.7082  -15.9452 C   0  0  0  0  0  0  0  0  0  0  0  0
   -3.9286    5.8597  -17.1208 N   0  0  0  0  0  0  0  0  0  0  0  0
   -4.8770    5.4932  -18.0305 N   0  0  0  0  0  0  0  0  0  0  0  0
   -4.6887    5.9654  -19.4143 C   0  0  2  0  0  0  0  0  0  0  0  0
   -5.4144    7.3038  -19.5748 C   0  0  0  0  0  0  0  0  0  0  0  0
   -5.0758    5.0066  -20.5192 C   0  0  0  0  0  0  0  0  0  0  0  0
   -4.8099    5.4179  -21.9589 C   0  0  0  0  0  0  0  0  0  0  0  0
   -4.0477    4.2820  -21.3632 C   0  0  0  0  0  0  0  0  0  0  0  0
   -8.3642    3.2901  -10.8331 C   0  0  0  0  0  0  0  0  0  0  0  0
   -8.5451    3.3909   -9.4629 C   0  0  0  0  0  0  0  0  0  0  0  0
   -9.1465    2.4242   -8.4849 C   0  0  0  0  0  0  0  0  0  0  0  0
  1  2  1  0
  2  3  1  0
  3  4  1  0
  4  5  1  0
  5  6  2  0
  6  7  1  0
  7  8  2  0
  8  9  1  0
  9 10  1  0
 10 11  2  0
 10 12  1  0
 12 13  2  0
 13 14  1  0
 14 15  1  0
 15 16  1  0
 16 17  1  0
 14 18  2  0
 18 19  1  0
 19 20  2  0
 20 21  1  0
 21 22  2  0
 22 23  1  0
 23 24  1  0
 24 25  1  1
 24 26  1  0
 26 27  1  0
 27 28  1  0
  8 29  1  0
 29 30  2  0
 30 31  1  0
 31  3  1  0
 30  5  1  0
 20 12  1  0
 28 26  1  0
 17 15  1  0
 23 19  1  0
M  END
>  <name>  (99) 
P125379

>  <alias>  (99) 
None

>  <smina_score_min>  (99) 
-9.229

>  <exports>  (99) 
['/opt/xchem-fragalysis-2/maxwin/BulkDock/OUTPUTS/openbind_xx01zvns2b_c2_elabs_1LOUTNY.sdf', '/opt/xchem-fragalysis-2/maxwin/BulkDock/OUTPUTS/openbind_xx01zvns2b_c2_elabs_1LSYIIV.sdf', '/opt/xchem-fragalysis-2/maxwin/openbind-hippo/xx01zvns2b/cycle_02/gnina/openbind_xx01zvns2b_c2_elabs_scored_6.2plus_products.sdf']

>  <tags>  (99) 
syndirella_placed,openbind_xx01zvns2b_c2_elabs,openbind_xx01zvns2b_c2_elabs_scored_6.2plus,syndirella_product,openbind_xx01zvns2b_c2_elabs_scored,openbind_xx01zvns2b_c2_elabs_scored_top80percent,BulkDock Fragalysis export,openbind_xx01zvns2b_c2_elabs_scored_top80percent_despaghettified

>  <subsites>  (99) 
1 - Z4590/B/203/1

>  <smiles>  (99) 
CCN1Cc2ccc(NC(=O)c3cc(C4CC4)nc4c3cnn4[C@H](C)C3CC3)cc2C1

>  <HIPPO Pose ID>  (99) 
125379

>  <energy_score>  (99) 
-47.386593

>  <inchikey>  (99) 
YWBYYNCAUORJOG-OAHLLOKOSA-N

>  <gnina_score_min>  (99) 
6.392

>  <gnina_score>  (99) 
6.316

>  <ref_mols>  (99) 
Z3559a

>  <HIPPO Compound ID>  (99) 
178759

>  <distance_score>  (99) 
0.60981

>  <rmsd(smina/fragmenstein)>  (99) 
1.348

>  <ref_pdb>  (99) 
Z3559a

>  <inspiration_score>  (99) 
None

$$$$
P125382
     RDKit          3D

 31 36  0  0  0  0  0  0  0  0999 V2000
   -5.3591    7.1209  -19.7211 C   0  0  0  0  0  0  0  0  0  0  0  0
   -4.7565    5.7574  -19.3732 C   0  0  1  0  0  0  0  0  0  0  0  0
   -3.3084    5.6803  -19.8401 C   0  0  0  0  0  0  0  0  0  0  0  0
   -2.9167    6.0421  -21.2611 C   0  0  0  0  0  0  0  0  0  0  0  0
   -2.8558    4.6162  -20.8151 C   0  0  0  0  0  0  0  0  0  0  0  0
   -4.9217    5.5340  -17.9242 N   0  0  0  0  0  0  0  0  0  0  0  0
   -4.0181    6.0271  -17.0356 N   0  0  0  0  0  0  0  0  0  0  0  0
   -4.6222    5.8714  -15.8537 C   0  0  0  0  0  0  0  0  0  0  0  0
   -5.9077    5.3044  -15.9632 C   0  0  0  0  0  0  0  0  0  0  0  0
   -6.9788    4.9812  -15.1218 C   0  0  0  0  0  0  0  0  0  0  0  0
   -6.9019    5.3358  -13.6826 C   0  0  0  0  0  0  0  0  0  0  0  0
   -6.3255    6.3092  -13.3934 O   0  0  0  0  0  0  0  0  0  0  0  0
   -7.6168    4.2937  -12.7934 N   0  0  0  0  0  0  0  0  0  0  0  0
   -7.8451    4.2813  -11.4218 C   0  0  0  0  0  0  0  0  0  0  0  0
   -7.3909    5.3301  -10.5972 C   0  0  0  0  0  0  0  0  0  0  0  0
   -7.5969    5.3105   -9.2111 C   0  0  0  0  0  0  0  0  0  0  0  0
   -8.2737    4.2359   -8.6747 C   0  0  0  0  0  0  0  0  0  0  0  0
   -8.7374    3.2212   -9.5089 C   0  0  0  0  0  0  0  0  0  0  0  0
   -8.5332    3.2036  -10.8739 C   0  0  0  0  0  0  0  0  0  0  0  0
   -9.4745    2.2649   -8.6891 C   0  0  0  0  0  0  0  0  0  0  0  0
   -9.9829    1.2467   -9.1073 O   0  0  0  0  0  0  0  0  0  0  0  0
   -9.4810    2.7664   -7.3984 N   0  0  0  0  0  0  0  0  0  0  0  0
   -9.7836    1.9075   -6.2904 C   0  0  0  0  0  0  0  0  0  0  0  0
   -8.6262    3.9254   -7.2599 C   0  0  0  0  0  0  0  0  0  0  0  0
   -8.1317    4.4517  -15.7132 C   0  0  0  0  0  0  0  0  0  0  0  0
   -8.1889    4.2605  -17.0990 C   0  0  0  0  0  0  0  0  0  0  0  0
   -9.4793    3.7686  -17.7194 C   0  0  0  0  0  0  0  0  0  0  0  0
   -9.7631    3.9696  -19.1852 C   0  0  0  0  0  0  0  0  0  0  0  0
   -9.4542    2.5967  -18.6678 C   0  0  0  0  0  0  0  0  0  0  0  0
   -7.1537    4.5648  -17.9216 N   0  0  0  0  0  0  0  0  0  0  0  0
   -6.0678    5.0724  -17.3168 C   0  0  0  0  0  0  0  0  0  0  0  0
  2  1  1  1
  2  3  1  0
  3  4  1  0
  4  5  1  0
  2  6  1  0
  6  7  1  0
  7  8  2  0
  8  9  1  0
  9 10  2  0
 10 11  1  0
 11 12  2  0
 11 13  1  0
 13 14  1  0
 14 15  2  0
 15 16  1  0
 16 17  2  0
 17 18  1  0
 18 19  2  0
 18 20  1  0
 20 21  2  0
 20 22  1  0
 22 23  1  0
 22 24  1  0
 10 25  1  0
 25 26  2  0
 26 27  1  0
 27 28  1  0
 28 29  1  0
 26 30  1  0
 30 31  2  0
  5  3  1  0
 31  6  1  0
 31  9  1  0
 19 14  1  0
 29 27  1  0
 24 17  1  0
M  END
>  <name>  (100) 
P125382

>  <alias>  (100) 
None

>  <smina_score_min>  (100) 
-8.929

>  <exports>  (100) 
['/opt/xchem-fragalysis-2/maxwin/BulkDock/OUTPUTS/openbind_xx01zvns2b_c2_elabs_1LOUTNY.sdf', '/opt/xchem-fragalysis-2/maxwin/BulkDock/OUTPUTS/openbind_xx01zvns2b_c2_elabs_1LSYIIV.sdf', '/opt/xchem-fragalysis-2/maxwin/openbind-hippo/xx01zvns2b/cycle_02/gnina/openbind_xx01zvns2b_c2_elabs_scored_6.2plus_products.sdf']

>  <tags>  (100) 
syndirella_placed,openbind_xx01zvns2b_c2_elabs,openbind_xx01zvns2b_c2_elabs_scored_6.2plus,syndirella_product,openbind_xx01zvns2b_c2_elabs_scored,openbind_xx01zvns2b_c2_elabs_scored_top80percent,BulkDock Fragalysis export,openbind_xx01zvns2b_c2_elabs_scored_top80percent_despaghettified

>  <subsites>  (100) 
1 - Z4590/B/203/1

>  <smiles>  (100) 
C[C@@H](C1CC1)n1ncc2c(C(=O)Nc3ccc4c(c3)C(=O)N(C)C4)cc(C3CC3)nc21

>  <HIPPO Pose ID>  (100) 
125382

>  <energy_score>  (100) 
-33.717891

>  <inchikey>  (100) 
CXQGHNNODNUDSX-ZDUSSCGKSA-N

>  <gnina_score_min>  (100) 
6.303

>  <gnina_score>  (100) 
6.388

>  <ref_mols>  (100) 
Z3559a

>  <HIPPO Compound ID>  (100) 
178749

>  <distance_score>  (100) 
0.475822

>  <rmsd(smina/fragmenstein)>  (100) 
0.437

>  <ref_pdb>  (100) 
Z3559a

>  <inspiration_score>  (100) 
None

$$$$
P125383
     RDKit          3D

 31 36  0  0  0  0  0  0  0  0999 V2000
   -5.5077    6.6894  -19.7070 C   0  0  0  0  0  0  0  0  0  0  0  0
   -4.6162    5.6754  -18.9843 C   0  0  1  0  0  0  0  0  0  0  0  0
   -3.1617    6.0137  -19.2632 C   0  0  0  0  0  0  0  0  0  0  0  0
   -2.4865    5.4665  -20.4989 C   0  0  0  0  0  0  0  0  0  0  0  0
   -2.0519    4.9991  -19.1386 C   0  0  0  0  0  0  0  0  0  0  0  0
   -4.9382    5.6509  -17.5509 N   0  0  0  0  0  0  0  0  0  0  0  0
   -4.1373    6.2577  -16.6337 N   0  0  0  0  0  0  0  0  0  0  0  0
   -4.8103    6.1125  -15.4879 C   0  0  0  0  0  0  0  0  0  0  0  0
   -6.0388    5.4460  -15.6530 C   0  0  0  0  0  0  0  0  0  0  0  0
   -7.1380    5.0782  -14.8750 C   0  0  0  0  0  0  0  0  0  0  0  0
   -7.2222    5.5196  -13.4703 C   0  0  0  0  0  0  0  0  0  0  0  0
   -7.1429    6.6720  -13.2416 O   0  0  0  0  0  0  0  0  0  0  0  0
   -7.4492    4.3525  -12.5405 N   0  0  0  0  0  0  0  0  0  0  0  0
   -6.0824    3.7708  -12.0072 C   0  0  0  0  0  0  0  0  0  0  0  0
   -7.7369    4.3176  -11.0909 C   0  0  0  0  0  0  0  0  0  0  0  0
   -7.6662    5.5066  -10.3270 C   0  0  0  0  0  0  0  0  0  0  0  0
   -7.9787    5.5063   -8.9658 C   0  0  0  0  0  0  0  0  0  0  0  0
   -8.4120    4.3238   -8.3946 C   0  0  0  0  0  0  0  0  0  0  0  0
   -8.5872    3.1729   -9.1587 C   0  0  0  0  0  0  0  0  0  0  0  0
   -8.2949    3.1578  -10.5128 C   0  0  0  0  0  0  0  0  0  0  0  0
   -9.1292    2.0789   -8.2941 C   0  0  0  0  0  0  0  0  0  0  0  0
   -9.0470    2.6040   -6.9119 N   0  0  0  0  0  0  0  0  0  0  0  0
  -10.1784    2.2317   -6.0866 C   0  0  0  0  0  0  0  0  0  0  0  0
   -8.8043    4.0500   -6.9788 C   0  0  0  0  0  0  0  0  0  0  0  0
   -8.2161    4.4528  -15.5063 C   0  0  0  0  0  0  0  0  0  0  0  0
   -8.1895    4.2454  -16.8914 C   0  0  0  0  0  0  0  0  0  0  0  0
   -9.4387    3.7425  -17.5892 C   0  0  0  0  0  0  0  0  0  0  0  0
   -9.3558    2.6316  -18.6059 C   0  0  0  0  0  0  0  0  0  0  0  0
   -9.6768    4.0250  -19.0531 C   0  0  0  0  0  0  0  0  0  0  0  0
   -7.1157    4.5700  -17.6566 N   0  0  0  0  0  0  0  0  0  0  0  0
   -6.0976    5.1541  -17.0028 C   0  0  0  0  0  0  0  0  0  0  0  0
  2  1  1  6
  2  3  1  0
  3  4  1  0
  4  5  1  0
  2  6  1  0
  6  7  1  0
  7  8  2  0
  8  9  1  0
  9 10  2  0
 10 11  1  0
 11 12  2  0
 11 13  1  0
 13 14  1  0
 13 15  1  0
 15 16  2  0
 16 17  1  0
 17 18  2  0
 18 19  1  0
 19 20  2  0
 19 21  1  0
 21 22  1  0
 22 23  1  0
 22 24  1  0
 10 25  1  0
 25 26  2  0
 26 27  1  0
 27 28  1  0
 28 29  1  0
 26 30  1  0
 30 31  2  0
  5  3  1  0
 31  6  1  0
 31  9  1  0
 20 15  1  0
 29 27  1  0
 24 18  1  0
M  END
>  <name>  (101) 
P125383

>  <alias>  (101) 
None

>  <smina_score_min>  (101) 
-9.284

>  <exports>  (101) 
['/opt/xchem-fragalysis-2/maxwin/BulkDock/OUTPUTS/openbind_xx01zvns2b_c2_elabs_1LOUTNY.sdf', '/opt/xchem-fragalysis-2/maxwin/BulkDock/OUTPUTS/openbind_xx01zvns2b_c2_elabs_1LSYIIV.sdf', '/opt/xchem-fragalysis-2/maxwin/openbind-hippo/xx01zvns2b/cycle_02/gnina/openbind_xx01zvns2b_c2_elabs_scored_6.2plus_products.sdf']

>  <tags>  (101) 
syndirella_placed,openbind_xx01zvns2b_c2_elabs,openbind_xx01zvns2b_c2_elabs_scored_6.2plus,syndirella_product,openbind_xx01zvns2b_c2_elabs_scored,openbind_xx01zvns2b_c2_elabs_scored_top80percent,BulkDock Fragalysis export,openbind_xx01zvns2b_c2_elabs_scored_top80percent_despaghettified

>  <subsites>  (101) 
1 - Z4590/B/203/1

>  <smiles>  (101) 
C[C@@H](C1CC1)n1ncc2c(C(=O)N(C)c3ccc4c(c3)CN(C)C4)cc(C3CC3)nc21

>  <HIPPO Pose ID>  (101) 
125383

>  <energy_score>  (101) 
-33.151137

>  <inchikey>  (101) 
TWYCDBNPPQXLJG-HNNXBMFYSA-N

>  <gnina_score_min>  (101) 
6.423

>  <gnina_score>  (101) 
6.453

>  <ref_mols>  (101) 
Z3559a

>  <HIPPO Compound ID>  (101) 
178750

>  <distance_score>  (101) 
0.496893

>  <rmsd(smina/fragmenstein)>  (101) 
0.375

>  <ref_pdb>  (101) 
Z3559a

>  <inspiration_score>  (101) 
None

$$$$
P125384
     RDKit          3D

 31 36  0  0  0  0  0  0  0  0999 V2000
   -5.5336    5.0867  -19.9248 C   0  0  0  0  0  0  0  0  0  0  0  0
   -4.5322    5.6077  -18.8982 C   0  0  1  0  0  0  0  0  0  0  0  0
   -4.1932    7.0512  -19.2402 C   0  0  0  0  0  0  0  0  0  0  0  0
   -2.8079    7.6030  -18.9996 C   0  0  0  0  0  0  0  0  0  0  0  0
   -3.2834    7.3699  -20.4046 C   0  0  0  0  0  0  0  0  0  0  0  0
   -4.9526    5.4956  -17.4979 N   0  0  0  0  0  0  0  0  0  0  0  0
   -4.0731    5.8851  -16.5338 N   0  0  0  0  0  0  0  0  0  0  0  0
   -4.7765    5.7774  -15.4039 C   0  0  0  0  0  0  0  0  0  0  0  0
   -6.0714    5.2618  -15.6102 C   0  0  0  0  0  0  0  0  0  0  0  0
   -7.2016    4.9498  -14.8398 C   0  0  0  0  0  0  0  0  0  0  0  0
   -7.2055    5.3194  -13.4027 C   0  0  0  0  0  0  0  0  0  0  0  0
   -6.6660    6.3175  -13.1230 O   0  0  0  0  0  0  0  0  0  0  0  0
   -7.9506    4.2958  -12.5090 N   0  0  0  0  0  0  0  0  0  0  0  0
   -8.0997    4.2419  -11.1135 C   0  0  0  0  0  0  0  0  0  0  0  0
   -8.6747    3.0949  -10.5514 C   0  0  0  0  0  0  0  0  0  0  0  0
   -8.8113    3.0501   -9.1704 C   0  0  0  0  0  0  0  0  0  0  0  0
   -8.3854    4.0782   -8.3308 C   0  0  0  0  0  0  0  0  0  0  0  0
   -7.8303    5.2186   -8.8684 C   0  0  0  0  0  0  0  0  0  0  0  0
   -7.7003    5.2953  -10.2584 C   0  0  0  0  0  0  0  0  0  0  0  0
   -7.1932    6.4364  -10.7391 F   0  0  0  0  0  0  0  0  0  0  0  0
   -8.6487    3.7253   -6.9073 C   0  0  0  0  0  0  0  0  0  0  0  0
   -9.3088    2.4557   -7.0153 N   0  0  0  0  0  0  0  0  0  0  0  0
   -9.4209    2.0213   -8.3186 C   0  0  0  0  0  0  0  0  0  0  0  0
   -9.9659    1.0077   -8.6965 O   0  0  0  0  0  0  0  0  0  0  0  0
   -8.3203    4.4382  -15.5054 C   0  0  0  0  0  0  0  0  0  0  0  0
   -8.2932    4.2676  -16.8952 C   0  0  0  0  0  0  0  0  0  0  0  0
   -9.5392    3.7985  -17.6212 C   0  0  0  0  0  0  0  0  0  0  0  0
   -9.7106    4.0321  -19.1026 C   0  0  0  0  0  0  0  0  0  0  0  0
   -9.4528    2.6471  -18.5939 C   0  0  0  0  0  0  0  0  0  0  0  0
   -7.2070    4.5748  -17.6435 N   0  0  0  0  0  0  0  0  0  0  0  0
   -6.1496    5.0622  -16.9764 C   0  0  0  0  0  0  0  0  0  0  0  0
  2  1  1  6
  2  3  1  0
  3  4  1  0
  4  5  1  0
  2  6  1  0
  6  7  1  0
  7  8  2  0
  8  9  1  0
  9 10  2  0
 10 11  1  0
 11 12  2  0
 11 13  1  0
 13 14  1  0
 14 15  2  0
 15 16  1  0
 16 17  2  0
 17 18  1  0
 18 19  2  0
 19 20  1  0
 17 21  1  0
 21 22  1  0
 22 23  1  0
 23 24  2  0
 10 25  1  0
 25 26  2  0
 26 27  1  0
 27 28  1  0
 28 29  1  0
 26 30  1  0
 30 31  2  0
  5  3  1  0
 31  6  1  0
 31  9  1  0
 19 14  1  0
 29 27  1  0
 23 16  1  0
M  END
>  <name>  (102) 
P125384

>  <alias>  (102) 
None

>  <smina_score_min>  (102) 
-8.985

>  <exports>  (102) 
['/opt/xchem-fragalysis-2/maxwin/BulkDock/OUTPUTS/openbind_xx01zvns2b_c2_elabs_1LOUTNY.sdf', '/opt/xchem-fragalysis-2/maxwin/BulkDock/OUTPUTS/openbind_xx01zvns2b_c2_elabs_1LSYIIV.sdf', '/opt/xchem-fragalysis-2/maxwin/openbind-hippo/xx01zvns2b/cycle_02/gnina/openbind_xx01zvns2b_c2_elabs_scored_6.2plus_products.sdf']

>  <tags>  (102) 
syndirella_placed,openbind_xx01zvns2b_c2_elabs,openbind_xx01zvns2b_c2_elabs_scored_6.2plus,syndirella_product,openbind_xx01zvns2b_c2_elabs_scored,openbind_xx01zvns2b_c2_elabs_scored_top80percent,BulkDock Fragalysis export,openbind_xx01zvns2b_c2_elabs_scored_top80percent_despaghettified

>  <subsites>  (102) 
1 - Z4590/B/203/1

>  <smiles>  (102) 
C[C@@H](C1CC1)n1ncc2c(C(=O)Nc3cc4c(cc3F)CNC4=O)cc(C3CC3)nc21

>  <HIPPO Pose ID>  (102) 
125384

>  <energy_score>  (102) 
-47.778849

>  <inchikey>  (102) 
QPSMCUUOBBEHTG-NSHDSACASA-N

>  <gnina_score_min>  (102) 
6.292

>  <gnina_score>  (102) 
6.452

>  <ref_mols>  (102) 
Z3559a

>  <HIPPO Compound ID>  (102) 
178756

>  <distance_score>  (102) 
0.355058

>  <rmsd(smina/fragmenstein)>  (102) 
0.946

>  <ref_pdb>  (102) 
Z3559a

>  <inspiration_score>  (102) 
None

$$$$
P125386
     RDKit          3D

 31 36  0  0  0  0  0  0  0  0999 V2000
   -5.7169    6.2901  -19.9039 C   0  0  0  0  0  0  0  0  0  0  0  0
   -4.5096    6.1197  -18.9947 C   0  0  2  0  0  0  0  0  0  0  0  0
   -3.4844    5.2350  -19.6624 C   0  0  0  0  0  0  0  0  0  0  0  0
   -2.0954    5.0373  -19.1040 C   0  0  0  0  0  0  0  0  0  0  0  0
   -2.2864    5.8487  -20.3524 C   0  0  0  0  0  0  0  0  0  0  0  0
   -4.8336    5.7208  -17.6200 N   0  0  0  0  0  0  0  0  0  0  0  0
   -3.9839    6.1509  -16.6447 N   0  0  0  0  0  0  0  0  0  0  0  0
   -4.6560    5.9379  -15.5154 C   0  0  0  0  0  0  0  0  0  0  0  0
   -5.9165    5.3571  -15.7358 C   0  0  0  0  0  0  0  0  0  0  0  0
   -7.0234    4.9959  -14.9630 C   0  0  0  0  0  0  0  0  0  0  0  0
   -7.0470    5.3759  -13.5332 C   0  0  0  0  0  0  0  0  0  0  0  0
   -6.6322    6.4300  -13.2512 O   0  0  0  0  0  0  0  0  0  0  0  0
   -7.6158    4.2527  -12.6402 N   0  0  0  0  0  0  0  0  0  0  0  0
   -7.8724    4.2276  -11.2722 C   0  0  0  0  0  0  0  0  0  0  0  0
   -7.6317    5.3705  -10.4831 C   0  0  0  0  0  0  0  0  0  0  0  0
   -7.8863    5.3642   -9.1113 C   0  0  0  0  0  0  0  0  0  0  0  0
   -8.3748    4.1960   -8.5673 C   0  0  0  0  0  0  0  0  0  0  0  0
   -8.6197    3.0560   -9.3306 C   0  0  0  0  0  0  0  0  0  0  0  0
   -8.3714    3.0551  -10.6939 C   0  0  0  0  0  0  0  0  0  0  0  0
   -9.1831    1.9824   -8.4617 C   0  0  0  0  0  0  0  0  0  0  0  0
   -9.2784    2.6417   -7.1699 N   0  0  0  0  0  0  0  0  0  0  0  0
  -10.0359    2.0749   -6.0855 C   0  0  0  0  0  0  0  0  0  0  0  0
   -8.8110    3.9388   -7.1905 C   0  0  0  0  0  0  0  0  0  0  0  0
   -8.8055    4.7678   -6.2989 O   0  0  0  0  0  0  0  0  0  0  0  0
   -8.1272    4.4450  -15.6136 C   0  0  0  0  0  0  0  0  0  0  0  0
   -8.1117    4.2931  -17.0055 C   0  0  0  0  0  0  0  0  0  0  0  0
   -9.3741    3.7922  -17.6870 C   0  0  0  0  0  0  0  0  0  0  0  0
   -9.3086    2.6415  -18.6591 C   0  0  0  0  0  0  0  0  0  0  0  0
   -9.6129    4.0215  -19.1567 C   0  0  0  0  0  0  0  0  0  0  0  0
   -7.0462    4.6553  -17.7739 N   0  0  0  0  0  0  0  0  0  0  0  0
   -5.9967    5.1778  -17.1077 C   0  0  0  0  0  0  0  0  0  0  0  0
  2  1  1  6
  2  3  1  0
  3  4  1  0
  4  5  1  0
  2  6  1  0
  6  7  1  0
  7  8  2  0
  8  9  1  0
  9 10  2  0
 10 11  1  0
 11 12  2  0
 11 13  1  0
 13 14  1  0
 14 15  2  0
 15 16  1  0
 16 17  2  0
 17 18  1  0
 18 19  2  0
 18 20  1  0
 20 21  1  0
 21 22  1  0
 21 23  1  0
 23 24  2  0
 10 25  1  0
 25 26  2  0
 26 27  1  0
 27 28  1  0
 28 29  1  0
 26 30  1  0
 30 31  2  0
  5  3  1  0
 31  6  1  0
 31  9  1  0
 19 14  1  0
 29 27  1  0
 23 17  1  0
M  END
>  <name>  (103) 
P125386

>  <alias>  (103) 
None

>  <smina_score_min>  (103) 
-9.501

>  <exports>  (103) 
['/opt/xchem-fragalysis-2/maxwin/BulkDock/OUTPUTS/openbind_xx01zvns2b_c2_elabs_1LOUTNY.sdf', '/opt/xchem-fragalysis-2/maxwin/BulkDock/OUTPUTS/openbind_xx01zvns2b_c2_elabs_1LSYIIV.sdf', '/opt/xchem-fragalysis-2/maxwin/openbind-hippo/xx01zvns2b/cycle_02/gnina/openbind_xx01zvns2b_c2_elabs_scored_6.2plus_products.sdf']

>  <tags>  (103) 
syndirella_placed,openbind_xx01zvns2b_c2_elabs,openbind_xx01zvns2b_c2_elabs_scored_6.2plus,syndirella_product,openbind_xx01zvns2b_c2_elabs_scored,openbind_xx01zvns2b_c2_elabs_scored_top80percent,BulkDock Fragalysis export,openbind_xx01zvns2b_c2_elabs_scored_top80percent_despaghettified

>  <subsites>  (103) 
1 - Z4590/B/203/1

>  <smiles>  (103) 
C[C@H](C1CC1)n1ncc2c(C(=O)Nc3ccc4c(c3)CN(C)C4=O)cc(C3CC3)nc21

>  <HIPPO Pose ID>  (103) 
125386

>  <energy_score>  (103) 
-44.902015

>  <inchikey>  (103) 
AWHIZWTYKNICNI-CYBMUJFWSA-N

>  <gnina_score_min>  (103) 
6.349

>  <gnina_score>  (103) 
6.383

>  <ref_mols>  (103) 
Z3559a

>  <HIPPO Compound ID>  (103) 
178757

>  <distance_score>  (103) 
0.4469

>  <rmsd(smina/fragmenstein)>  (103) 
0.849

>  <ref_pdb>  (103) 
Z3559a

>  <inspiration_score>  (103) 
None

$$$$
P125388
     RDKit          3D

 31 36  0  0  0  0  0  0  0  0999 V2000
   -5.2606    6.7938  -19.5968 C   0  0  0  0  0  0  0  0  0  0  0  0
   -4.6915    5.5285  -18.9562 C   0  0  1  0  0  0  0  0  0  0  0  0
   -3.2030    5.3142  -19.1869 C   0  0  0  0  0  0  0  0  0  0  0  0
   -2.2692    6.3560  -19.7614 C   0  0  0  0  0  0  0  0  0  0  0  0
   -2.6552    5.1618  -20.5881 C   0  0  0  0  0  0  0  0  0  0  0  0
   -5.0353    5.5089  -17.5255 N   0  0  0  0  0  0  0  0  0  0  0  0
   -4.2102    6.0510  -16.5933 N   0  0  0  0  0  0  0  0  0  0  0  0
   -4.8916    5.8982  -15.4518 C   0  0  0  0  0  0  0  0  0  0  0  0
   -6.1534    5.2920  -15.6361 C   0  0  0  0  0  0  0  0  0  0  0  0
   -7.2711    4.9362  -14.8651 C   0  0  0  0  0  0  0  0  0  0  0  0
   -7.2969    5.2979  -13.4249 C   0  0  0  0  0  0  0  0  0  0  0  0
   -6.8371    6.3352  -13.1415 O   0  0  0  0  0  0  0  0  0  0  0  0
   -7.9473    4.2088  -12.5316 N   0  0  0  0  0  0  0  0  0  0  0  0
   -8.0758    4.1325  -11.1418 C   0  0  0  0  0  0  0  0  0  0  0  0
   -7.5579    5.1665  -10.3296 C   0  0  0  0  0  0  0  0  0  0  0  0
   -7.6155    5.0976   -8.9328 C   0  0  0  0  0  0  0  0  0  0  0  0
   -8.2069    3.9822   -8.3816 C   0  0  0  0  0  0  0  0  0  0  0  0
   -8.7479    2.9805   -9.1681 C   0  0  0  0  0  0  0  0  0  0  0  0
   -8.6923    3.0210  -10.5542 C   0  0  0  0  0  0  0  0  0  0  0  0
   -9.3290    1.9948   -8.2536 C   0  0  0  0  0  0  0  0  0  0  0  0
   -9.9755    1.0240   -8.5855 O   0  0  0  0  0  0  0  0  0  0  0  0
   -9.0585    2.4220   -6.9878 N   0  0  0  0  0  0  0  0  0  0  0  0
   -8.3743    3.5963   -6.9788 C   0  0  0  0  0  0  0  0  0  0  0  0
   -7.9463    4.2211   -6.0252 O   0  0  0  0  0  0  0  0  0  0  0  0
   -8.3728    4.3966  -15.5389 C   0  0  0  0  0  0  0  0  0  0  0  0
   -8.3363    4.2248  -16.9305 C   0  0  0  0  0  0  0  0  0  0  0  0
   -9.5784    3.7653  -17.6640 C   0  0  0  0  0  0  0  0  0  0  0  0
   -9.7217    3.9758  -19.1514 C   0  0  0  0  0  0  0  0  0  0  0  0
   -9.4996    2.5954  -18.6126 C   0  0  0  0  0  0  0  0  0  0  0  0
   -7.2464    4.5304  -17.6742 N   0  0  0  0  0  0  0  0  0  0  0  0
   -6.2168    5.0548  -16.9958 C   0  0  0  0  0  0  0  0  0  0  0  0
  2  1  1  1
  2  3  1  0
  3  4  1  0
  4  5  1  0
  2  6  1  0
  6  7  1  0
  7  8  2  0
  8  9  1  0
  9 10  2  0
 10 11  1  0
 11 12  2  0
 11 13  1  0
 13 14  1  0
 14 15  2  0
 15 16  1  0
 16 17  2  0
 17 18  1  0
 18 19  2  0
 18 20  1  0
 20 21  2  0
 20 22  1  0
 22 23  1  0
 23 24  2  0
 10 25  1  0
 25 26  2  0
 26 27  1  0
 27 28  1  0
 28 29  1  0
 26 30  1  0
 30 31  2  0
  5  3  1  0
 31  6  1  0
 31  9  1  0
 19 14  1  0
 29 27  1  0
 23 17  1  0
M  END
>  <name>  (104) 
P125388

>  <alias>  (104) 
None

>  <smina_score_min>  (104) 
-9.281

>  <exports>  (104) 
['/opt/xchem-fragalysis-2/maxwin/BulkDock/OUTPUTS/openbind_xx01zvns2b_c2_elabs_1LOUTNY.sdf', '/opt/xchem-fragalysis-2/maxwin/BulkDock/OUTPUTS/openbind_xx01zvns2b_c2_elabs_1LSYIIV.sdf', '/opt/xchem-fragalysis-2/maxwin/openbind-hippo/xx01zvns2b/cycle_02/gnina/openbind_xx01zvns2b_c2_elabs_scored_6.2plus_products.sdf']

>  <tags>  (104) 
syndirella_placed,openbind_xx01zvns2b_c2_elabs,openbind_xx01zvns2b_c2_elabs_scored_6.2plus,syndirella_product,openbind_xx01zvns2b_c2_elabs_scored,openbind_xx01zvns2b_c2_elabs_scored_top80percent,BulkDock Fragalysis export,openbind_xx01zvns2b_c2_elabs_scored_top80percent_despaghettified

>  <subsites>  (104) 
1 - Z4590/B/203/1

>  <smiles>  (104) 
C[C@@H](C1CC1)n1ncc2c(C(=O)Nc3ccc4c(c3)C(=O)NC4=O)cc(C3CC3)nc21

>  <HIPPO Pose ID>  (104) 
125388

>  <energy_score>  (104) 
-43.837399

>  <inchikey>  (104) 
WYDPTBLFIJFKNR-NSHDSACASA-N

>  <gnina_score_min>  (104) 
6.241

>  <gnina_score>  (104) 
6.357

>  <ref_mols>  (104) 
Z3559a

>  <HIPPO Compound ID>  (104) 
178758

>  <distance_score>  (104) 
0.34642

>  <rmsd(smina/fragmenstein)>  (104) 
0.48

>  <ref_pdb>  (104) 
Z3559a

>  <inspiration_score>  (104) 
None

$$$$
P125481
     RDKit          3D

 32 37  0  0  0  0  0  0  0  0999 V2000
  -10.8758    2.9449   -5.4509 C   0  0  0  0  0  0  0  0  0  0  0  0
   -9.6230    2.2979   -6.0058 C   0  0  0  0  0  0  0  0  0  0  0  0
   -9.1859    2.9135   -7.2292 N   0  0  0  0  0  0  0  0  0  0  0  0
   -9.1534    2.2001   -8.4977 C   0  0  0  0  0  0  0  0  0  0  0  0
   -8.5955    3.2360   -9.4166 C   0  0  0  0  0  0  0  0  0  0  0  0
   -8.4291    3.2142  -10.7905 C   0  0  0  0  0  0  0  0  0  0  0  0
   -7.9123    4.3623  -11.4041 C   0  0  0  0  0  0  0  0  0  0  0  0
   -7.7570    4.3844  -12.7855 N   0  0  0  0  0  0  0  0  0  0  0  0
   -7.1129    5.4449  -13.7060 C   0  0  0  0  0  0  0  0  0  0  0  0
   -6.6808    6.5007  -13.4575 O   0  0  0  0  0  0  0  0  0  0  0  0
   -7.1047    5.0177  -15.1195 C   0  0  0  0  0  0  0  0  0  0  0  0
   -8.2197    4.4307  -15.7249 C   0  0  0  0  0  0  0  0  0  0  0  0
   -8.2312    4.2150  -17.1062 C   0  0  0  0  0  0  0  0  0  0  0  0
   -9.5054    3.7299  -17.7614 C   0  0  0  0  0  0  0  0  0  0  0  0
   -9.4759    2.5293  -18.6704 C   0  0  0  0  0  0  0  0  0  0  0  0
   -9.7202    3.8931  -19.2439 C   0  0  0  0  0  0  0  0  0  0  0  0
   -7.1713    4.5078  -17.8996 N   0  0  0  0  0  0  0  0  0  0  0  0
   -6.1267    5.0802  -17.2790 C   0  0  0  0  0  0  0  0  0  0  0  0
   -6.0247    5.3714  -15.9331 C   0  0  0  0  0  0  0  0  0  0  0  0
   -4.7895    6.0361  -15.8080 C   0  0  0  0  0  0  0  0  0  0  0  0
   -4.1675    6.1999  -16.9790 N   0  0  0  0  0  0  0  0  0  0  0  0
   -4.9751    5.5574  -17.8635 N   0  0  0  0  0  0  0  0  0  0  0  0
   -4.7327    5.6068  -19.3116 C   0  0  1  0  0  0  0  0  0  0  0  0
   -5.2339    6.9349  -19.8830 C   0  0  0  0  0  0  0  0  0  0  0  0
   -3.3247    5.3185  -19.8049 C   0  0  0  0  0  0  0  0  0  0  0  0
   -2.1449    6.1986  -19.4594 C   0  0  0  0  0  0  0  0  0  0  0  0
   -2.1943    4.7829  -18.9562 C   0  0  0  0  0  0  0  0  0  0  0  0
   -7.5665    5.4971  -10.6434 C   0  0  0  0  0  0  0  0  0  0  0  0
   -7.7277    5.5095   -9.2615 C   0  0  0  0  0  0  0  0  0  0  0  0
   -8.2410    4.3702   -8.6850 C   0  0  0  0  0  0  0  0  0  0  0  0
   -8.5699    4.1438   -7.2799 C   0  0  0  0  0  0  0  0  0  0  0  0
   -8.3465    4.9286   -6.3765 O   0  0  0  0  0  0  0  0  0  0  0  0
  1  2  1  0
  2  3  1  0
  3  4  1  0
  4  5  1  0
  5  6  2  0
  6  7  1  0
  7  8  1  0
  8  9  1  0
  9 10  2  0
  9 11  1  0
 11 12  2  0
 12 13  1  0
 13 14  1  0
 14 15  1  0
 15 16  1  0
 13 17  2  0
 17 18  1  0
 18 19  2  0
 19 20  1  0
 20 21  2  0
 21 22  1  0
 22 23  1  0
 23 24  1  1
 23 25  1  0
 25 26  1  0
 26 27  1  0
  7 28  2  0
 28 29  1  0
 29 30  2  0
 30 31  1  0
 31 32  2  0
 31  3  1  0
 30  5  1  0
 19 11  1  0
 27 25  1  0
 16 14  1  0
 22 18  1  0
M  END
>  <name>  (105) 
P125481

>  <alias>  (105) 
None

>  <smina_score_min>  (105) 
-9.346

>  <exports>  (105) 
['/opt/xchem-fragalysis-2/maxwin/BulkDock/OUTPUTS/openbind_xx01zvns2b_c2_elabs_1LOUTNY.sdf', '/opt/xchem-fragalysis-2/maxwin/BulkDock/OUTPUTS/openbind_xx01zvns2b_c2_elabs_1LSYIIV.sdf', '/opt/xchem-fragalysis-2/maxwin/openbind-hippo/xx01zvns2b/cycle_02/gnina/openbind_xx01zvns2b_c2_elabs_scored_6.2plus_products.sdf']

>  <tags>  (105) 
syndirella_placed,openbind_xx01zvns2b_c2_elabs,openbind_xx01zvns2b_c2_elabs_scored_6.2plus,syndirella_product,openbind_xx01zvns2b_c2_elabs_scored,openbind_xx01zvns2b_c2_elabs_scored_top80percent,BulkDock Fragalysis export,openbind_xx01zvns2b_c2_elabs_scored_top80percent_despaghettified

>  <subsites>  (105) 
1 - Z4590/B/203/1

>  <smiles>  (105) 
CCN1Cc2cc(NC(=O)c3cc(C4CC4)nc4c3cnn4[C@@H](C)C3CC3)ccc2C1=O

>  <HIPPO Pose ID>  (105) 
125481

>  <energy_score>  (105) 
-70.835453

>  <inchikey>  (105) 
FYDWMNOMFCFITO-AWEZNQCLSA-N

>  <gnina_score_min>  (105) 
6.514

>  <gnina_score>  (105) 
6.449

>  <ref_mols>  (105) 
Z3559a

>  <HIPPO Compound ID>  (105) 
179356

>  <distance_score>  (105) 
0.459292

>  <rmsd(smina/fragmenstein)>  (105) 
0.283

>  <ref_pdb>  (105) 
Z3559a

>  <inspiration_score>  (105) 
None

$$$$
P125496
     RDKit          3D

 32 37  0  0  0  0  0  0  0  0999 V2000
   -5.3962    7.0174  -19.7073 C   0  0  0  0  0  0  0  0  0  0  0  0
   -4.7408    5.6983  -19.2908 C   0  0  1  0  0  0  0  0  0  0  0  0
   -3.2764    5.6603  -19.7149 C   0  0  0  0  0  0  0  0  0  0  0  0
   -2.8301    6.0898  -21.1012 C   0  0  0  0  0  0  0  0  0  0  0  0
   -2.7874    4.6440  -20.7238 C   0  0  0  0  0  0  0  0  0  0  0  0
   -4.9371    5.5224  -17.8377 N   0  0  0  0  0  0  0  0  0  0  0  0
   -4.0695    6.0728  -16.9457 N   0  0  0  0  0  0  0  0  0  0  0  0
   -4.6990    5.9437  -15.7740 C   0  0  0  0  0  0  0  0  0  0  0  0
   -5.9666    5.3404  -15.8938 C   0  0  0  0  0  0  0  0  0  0  0  0
   -7.0581    5.0392  -15.0701 C   0  0  0  0  0  0  0  0  0  0  0  0
   -7.0629    5.5282  -13.6725 C   0  0  0  0  0  0  0  0  0  0  0  0
   -6.6171    6.5910  -13.4808 O   0  0  0  0  0  0  0  0  0  0  0  0
   -7.6737    4.5047  -12.6868 N   0  0  0  0  0  0  0  0  0  0  0  0
   -7.9407    4.6097  -11.3223 C   0  0  0  0  0  0  0  0  0  0  0  0
   -7.7073    5.8211  -10.6484 C   0  0  0  0  0  0  0  0  0  0  0  0
   -7.9170    5.9408   -9.2719 C   0  0  0  0  0  0  0  0  0  0  0  0
   -8.3620    4.8331   -8.5777 C   0  0  0  0  0  0  0  0  0  0  0  0
   -8.6182    3.6321   -9.2536 C   0  0  0  0  0  0  0  0  0  0  0  0
   -8.4162    3.4998  -10.6221 C   0  0  0  0  0  0  0  0  0  0  0  0
   -9.0726    2.6013   -8.2719 C   0  0  0  0  0  0  0  0  0  0  0  0
   -9.3220    3.3745   -7.0348 N   0  0  0  0  0  0  0  0  0  0  0  0
   -9.1920    2.5662   -5.8504 C   0  0  0  0  0  0  0  0  0  0  0  0
   -8.5470    4.6351   -7.0885 C   0  0  0  0  0  0  0  0  0  0  0  0
   -7.1428    4.6436   -6.4551 C   0  0  0  0  0  0  0  0  0  0  0  0
   -9.3423    5.7319   -6.3544 C   0  0  0  0  0  0  0  0  0  0  0  0
   -8.1862    4.4656  -15.6638 C   0  0  0  0  0  0  0  0  0  0  0  0
   -8.2093    4.2373  -17.0460 C   0  0  0  0  0  0  0  0  0  0  0  0
   -9.4888    3.7461  -17.6898 C   0  0  0  0  0  0  0  0  0  0  0  0
   -9.7511    3.9664  -19.1580 C   0  0  0  0  0  0  0  0  0  0  0  0
   -9.4498    2.5872  -18.6534 C   0  0  0  0  0  0  0  0  0  0  0  0
   -7.1567    4.5228  -17.8546 N   0  0  0  0  0  0  0  0  0  0  0  0
   -6.0892    5.0591  -17.2417 C   0  0  0  0  0  0  0  0  0  0  0  0
  2  1  1  1
  2  3  1  0
  3  4  1  0
  4  5  1  0
  2  6  1  0
  6  7  1  0
  7  8  2  0
  8  9  1  0
  9 10  2  0
 10 11  1  0
 11 12  2  0
 11 13  1  0
 13 14  1  0
 14 15  2  0
 15 16  1  0
 16 17  2  0
 17 18  1  0
 18 19  2  0
 18 20  1  0
 20 21  1  0
 21 22  1  0
 21 23  1  0
 23 24  1  0
 23 25  1  0
 10 26  1  0
 26 27  2  0
 27 28  1  0
 28 29  1  0
 29 30  1  0
 27 31  1  0
 31 32  2  0
  5  3  1  0
 32  6  1  0
 32  9  1  0
 19 14  1  0
 30 28  1  0
 23 17  1  0
M  END
>  <name>  (106) 
P125496

>  <alias>  (106) 
None

>  <smina_score_min>  (106) 
-8.663

>  <exports>  (106) 
['/opt/xchem-fragalysis-2/maxwin/BulkDock/OUTPUTS/openbind_xx01zvns2b_c2_elabs_1LOUTNY.sdf', '/opt/xchem-fragalysis-2/maxwin/BulkDock/OUTPUTS/openbind_xx01zvns2b_c2_elabs_1LSYIIV.sdf', '/opt/xchem-fragalysis-2/maxwin/openbind-hippo/xx01zvns2b/cycle_02/gnina/openbind_xx01zvns2b_c2_elabs_scored_6.2plus_products.sdf']

>  <tags>  (106) 
syndirella_placed,openbind_xx01zvns2b_c2_elabs,openbind_xx01zvns2b_c2_elabs_scored_6.2plus,syndirella_product,openbind_xx01zvns2b_c2_elabs_scored,openbind_xx01zvns2b_c2_elabs_scored_top80percent,BulkDock Fragalysis export,openbind_xx01zvns2b_c2_elabs_scored_top80percent_despaghettified

>  <subsites>  (106) 
1 - Z4590/B/203/1

>  <smiles>  (106) 
C[C@@H](C1CC1)n1ncc2c(C(=O)Nc3ccc4c(c3)CN(C)C4(C)C)cc(C3CC3)nc21

>  <HIPPO Pose ID>  (106) 
125496

>  <energy_score>  (106) 
-77.652977

>  <inchikey>  (106) 
AMJMMTKWBJZLQF-HNNXBMFYSA-N

>  <gnina_score_min>  (106) 
6.434

>  <gnina_score>  (106) 
6.412

>  <ref_mols>  (106) 
Z3559a

>  <HIPPO Compound ID>  (106) 
179351

>  <distance_score>  (106) 
0.622522

>  <rmsd(smina/fragmenstein)>  (106) 
0.377

>  <ref_pdb>  (106) 
Z3559a

>  <inspiration_score>  (106) 
None

$$$$
P125511
     RDKit          3D

 32 37  0  0  0  0  0  0  0  0999 V2000
   -4.8629    7.6032  -19.3986 C   0  0  0  0  0  0  0  0  0  0  0  0
   -5.0287    6.0859  -19.2747 C   0  0  1  0  0  0  0  0  0  0  0  0
   -4.0378    5.2711  -20.0723 C   0  0  0  0  0  0  0  0  0  0  0  0
   -3.0562    5.8571  -21.0664 C   0  0  0  0  0  0  0  0  0  0  0  0
   -2.5560    5.2786  -19.7741 C   0  0  0  0  0  0  0  0  0  0  0  0
   -5.0949    5.6845  -17.8617 N   0  0  0  0  0  0  0  0  0  0  0  0
   -4.1433    6.0869  -16.9769 N   0  0  0  0  0  0  0  0  0  0  0  0
   -4.7089    5.8497  -15.7868 C   0  0  0  0  0  0  0  0  0  0  0  0
   -5.9940    5.2745  -15.8880 C   0  0  0  0  0  0  0  0  0  0  0  0
   -7.0460    4.8938  -15.0402 C   0  0  0  0  0  0  0  0  0  0  0  0
   -6.9652    5.2234  -13.5912 C   0  0  0  0  0  0  0  0  0  0  0  0
   -6.3837    6.1962  -13.3055 O   0  0  0  0  0  0  0  0  0  0  0  0
   -7.7466    4.2237  -12.7027 N   0  0  0  0  0  0  0  0  0  0  0  0
   -7.8897    4.1639  -11.3164 C   0  0  0  0  0  0  0  0  0  0  0  0
   -7.4183    5.2208  -10.5066 C   0  0  0  0  0  0  0  0  0  0  0  0
   -7.5843    5.2036   -9.1171 C   0  0  0  0  0  0  0  0  0  0  0  0
   -8.2220    4.1100   -8.5740 C   0  0  0  0  0  0  0  0  0  0  0  0
   -8.6841    3.0737   -9.3617 C   0  0  0  0  0  0  0  0  0  0  0  0
   -8.5357    3.0675  -10.7387 C   0  0  0  0  0  0  0  0  0  0  0  0
   -9.3924    2.1489   -8.4825 C   0  0  0  0  0  0  0  0  0  0  0  0
  -10.0007    1.1768   -8.8794 O   0  0  0  0  0  0  0  0  0  0  0  0
   -9.2980    2.6571   -7.2165 N   0  0  0  0  0  0  0  0  0  0  0  0
  -10.0178    2.1105   -6.0964 C   0  0  0  0  0  0  0  0  0  0  0  0
   -8.6186    3.8398   -7.1932 C   0  0  0  0  0  0  0  0  0  0  0  0
   -8.4018    4.6005   -6.2664 O   0  0  0  0  0  0  0  0  0  0  0  0
   -8.2014    4.3749  -15.6417 C   0  0  0  0  0  0  0  0  0  0  0  0
   -8.2802    4.2518  -17.0349 C   0  0  0  0  0  0  0  0  0  0  0  0
   -9.5609    3.7676  -17.6764 C   0  0  0  0  0  0  0  0  0  0  0  0
   -9.8225    3.9788  -19.1466 C   0  0  0  0  0  0  0  0  0  0  0  0
   -9.5163    2.6035  -18.6353 C   0  0  0  0  0  0  0  0  0  0  0  0
   -7.2727    4.6281  -17.8550 N   0  0  0  0  0  0  0  0  0  0  0  0
   -6.1892    5.1278  -17.2480 C   0  0  0  0  0  0  0  0  0  0  0  0
  2  1  1  1
  2  3  1  0
  3  4  1  0
  4  5  1  0
  2  6  1  0
  6  7  1  0
  7  8  2  0
  8  9  1  0
  9 10  2  0
 10 11  1  0
 11 12  2  0
 11 13  1  0
 13 14  1  0
 14 15  2  0
 15 16  1  0
 16 17  2  0
 17 18  1  0
 18 19  2  0
 18 20  1  0
 20 21  2  0
 20 22  1  0
 22 23  1  0
 22 24  1  0
 24 25  2  0
 10 26  1  0
 26 27  2  0
 27 28  1  0
 28 29  1  0
 29 30  1  0
 27 31  1  0
 31 32  2  0
  5  3  1  0
 32  6  1  0
 32  9  1  0
 19 14  1  0
 30 28  1  0
 24 17  1  0
M  END
>  <name>  (107) 
P125511

>  <alias>  (107) 
None

>  <smina_score_min>  (107) 
-9.189

>  <exports>  (107) 
['/opt/xchem-fragalysis-2/maxwin/BulkDock/OUTPUTS/openbind_xx01zvns2b_c2_elabs_1LOUTNY.sdf', '/opt/xchem-fragalysis-2/maxwin/BulkDock/OUTPUTS/openbind_xx01zvns2b_c2_elabs_1LSYIIV.sdf', '/opt/xchem-fragalysis-2/maxwin/openbind-hippo/xx01zvns2b/cycle_02/gnina/openbind_xx01zvns2b_c2_elabs_scored_6.2plus_products.sdf']

>  <tags>  (107) 
syndirella_placed,openbind_xx01zvns2b_c2_elabs,openbind_xx01zvns2b_c2_elabs_scored_6.2plus,syndirella_product,openbind_xx01zvns2b_c2_elabs_scored,openbind_xx01zvns2b_c2_elabs_scored_top80percent,BulkDock Fragalysis export,openbind_xx01zvns2b_c2_elabs_scored_top80percent_despaghettified

>  <subsites>  (107) 
1 - Z4590/B/203/1

>  <smiles>  (107) 
C[C@@H](C1CC1)n1ncc2c(C(=O)Nc3ccc4c(c3)C(=O)N(C)C4=O)cc(C3CC3)nc21

>  <HIPPO Pose ID>  (107) 
125511

>  <energy_score>  (107) 
-43.826131

>  <inchikey>  (107) 
QSNMQVZRLPXNIT-LBPRGKRZSA-N

>  <gnina_score_min>  (107) 
6.24

>  <gnina_score>  (107) 
6.376

>  <ref_mols>  (107) 
Z3559a

>  <HIPPO Compound ID>  (107) 
179347

>  <distance_score>  (107) 
0.396872

>  <rmsd(smina/fragmenstein)>  (107) 
0.794

>  <ref_pdb>  (107) 
Z3559a

>  <inspiration_score>  (107) 
None

$$$$
P125515
     RDKit          3D

 32 37  0  0  0  0  0  0  0  0999 V2000
  -10.7619    2.6621   -5.3409 C   0  0  0  0  0  0  0  0  0  0  0  0
   -9.9553    1.8953   -6.3642 C   0  0  0  0  0  0  0  0  0  0  0  0
   -9.5043    2.7258   -7.4476 N   0  0  0  0  0  0  0  0  0  0  0  0
   -8.6800    3.9023   -7.2561 C   0  0  0  0  0  0  0  0  0  0  0  0
   -8.2864    4.2387   -8.6533 C   0  0  0  0  0  0  0  0  0  0  0  0
   -7.6283    5.3393   -9.1576 C   0  0  0  0  0  0  0  0  0  0  0  0
   -7.4090    5.3904  -10.5397 C   0  0  0  0  0  0  0  0  0  0  0  0
   -7.8289    4.3445  -11.3859 C   0  0  0  0  0  0  0  0  0  0  0  0
   -7.6036    4.3854  -12.7521 N   0  0  0  0  0  0  0  0  0  0  0  0
   -6.9560    5.4745  -13.6272 C   0  0  0  0  0  0  0  0  0  0  0  0
   -6.4400    6.4767  -13.3283 O   0  0  0  0  0  0  0  0  0  0  0  0
   -7.0052    5.1059  -15.0565 C   0  0  0  0  0  0  0  0  0  0  0  0
   -8.1439    4.5647  -15.6602 C   0  0  0  0  0  0  0  0  0  0  0  0
   -8.1577    4.3310  -17.0369 C   0  0  0  0  0  0  0  0  0  0  0  0
   -9.4265    3.8041  -17.6794 C   0  0  0  0  0  0  0  0  0  0  0  0
   -9.7093    4.0294  -19.1419 C   0  0  0  0  0  0  0  0  0  0  0  0
   -9.3592    2.6558  -18.6553 C   0  0  0  0  0  0  0  0  0  0  0  0
   -7.0968    4.6222  -17.8288 N   0  0  0  0  0  0  0  0  0  0  0  0
   -6.0153    5.1314  -17.2130 C   0  0  0  0  0  0  0  0  0  0  0  0
   -5.8971    5.3804  -15.8585 C   0  0  0  0  0  0  0  0  0  0  0  0
   -4.5923    5.8754  -15.6912 C   0  0  0  0  0  0  0  0  0  0  0  0
   -3.9112    5.9273  -16.8363 N   0  0  0  0  0  0  0  0  0  0  0  0
   -4.8217    5.5304  -17.7731 N   0  0  0  0  0  0  0  0  0  0  0  0
   -4.4070    5.5631  -19.1844 C   0  0  1  0  0  0  0  0  0  0  0  0
   -5.4325    4.9868  -20.1523 C   0  0  0  0  0  0  0  0  0  0  0  0
   -3.9282    6.9642  -19.5782 C   0  0  0  0  0  0  0  0  0  0  0  0
   -4.6272    7.8542  -20.5826 C   0  0  0  0  0  0  0  0  0  0  0  0
   -3.3132    7.2165  -20.9373 C   0  0  0  0  0  0  0  0  0  0  0  0
   -8.4891    3.2373  -10.8727 C   0  0  0  0  0  0  0  0  0  0  0  0
   -8.7094    3.2285   -9.5147 C   0  0  0  0  0  0  0  0  0  0  0  0
   -9.4648    2.2550   -8.7429 C   0  0  0  0  0  0  0  0  0  0  0  0
   -9.9852    1.2657   -9.2109 O   0  0  0  0  0  0  0  0  0  0  0  0
  1  2  1  0
  2  3  1  0
  3  4  1  0
  4  5  1  0
  5  6  2  0
  6  7  1  0
  7  8  2  0
  8  9  1  0
  9 10  1  0
 10 11  2  0
 10 12  1  0
 12 13  2  0
 13 14  1  0
 14 15  1  0
 15 16  1  0
 16 17  1  0
 14 18  2  0
 18 19  1  0
 19 20  2  0
 20 21  1  0
 21 22  2  0
 22 23  1  0
 23 24  1  0
 24 25  1  6
 24 26  1  0
 26 27  1  0
 27 28  1  0
  8 29  1  0
 29 30  2  0
 30 31  1  0
 31 32  2  0
 31  3  1  0
 30  5  1  0
 20 12  1  0
 28 26  1  0
 17 15  1  0
 23 19  1  0
M  END
>  <name>  (108) 
P125515

>  <alias>  (108) 
None

>  <smina_score_min>  (108) 
-8.66

>  <exports>  (108) 
['/opt/xchem-fragalysis-2/maxwin/BulkDock/OUTPUTS/openbind_xx01zvns2b_c2_elabs_1LOUTNY.sdf', '/opt/xchem-fragalysis-2/maxwin/BulkDock/OUTPUTS/openbind_xx01zvns2b_c2_elabs_1LSYIIV.sdf', '/opt/xchem-fragalysis-2/maxwin/openbind-hippo/xx01zvns2b/cycle_02/gnina/openbind_xx01zvns2b_c2_elabs_scored_6.2plus_products.sdf']

>  <tags>  (108) 
syndirella_placed,openbind_xx01zvns2b_c2_elabs,openbind_xx01zvns2b_c2_elabs_scored_6.2plus,syndirella_product,openbind_xx01zvns2b_c2_elabs_scored,openbind_xx01zvns2b_c2_elabs_scored_top80percent,BulkDock Fragalysis export,openbind_xx01zvns2b_c2_elabs_scored_top80percent_despaghettified

>  <subsites>  (108) 
1 - Z4590/B/203/1

>  <smiles>  (108) 
CCN1Cc2ccc(NC(=O)c3cc(C4CC4)nc4c3cnn4[C@@H](C)C3CC3)cc2C1=O

>  <HIPPO Pose ID>  (108) 
125515

>  <energy_score>  (108) 
-57.408498

>  <inchikey>  (108) 
VPVSAXCAKIIQPJ-AWEZNQCLSA-N

>  <gnina_score_min>  (108) 
6.277

>  <gnina_score>  (108) 
6.371

>  <ref_mols>  (108) 
Z3559a

>  <HIPPO Compound ID>  (108) 
179350

>  <distance_score>  (108) 
0.499041

>  <rmsd(smina/fragmenstein)>  (108) 
0.438

>  <ref_pdb>  (108) 
Z3559a

>  <inspiration_score>  (108) 
None

$$$$
P125678
     RDKit          3D

 33 38  0  0  0  0  0  0  0  0999 V2000
  -10.8297    2.1211   -5.7694 C   0  0  0  0  0  0  0  0  0  0  0  0
   -9.3986    2.6170   -5.9034 C   0  0  0  0  0  0  0  0  0  0  0  0
   -9.0845    3.5197   -4.6998 C   0  0  0  0  0  0  0  0  0  0  0  0
   -9.1602    3.2699   -7.1829 N   0  0  0  0  0  0  0  0  0  0  0  0
   -8.3424    4.4537   -7.2758 C   0  0  0  0  0  0  0  0  0  0  0  0
   -8.1112    4.5889   -8.7286 C   0  0  0  0  0  0  0  0  0  0  0  0
   -7.4832    5.6156   -9.3918 C   0  0  0  0  0  0  0  0  0  0  0  0
   -7.3604    5.5000  -10.7699 C   0  0  0  0  0  0  0  0  0  0  0  0
   -7.8554    4.3761  -11.4633 C   0  0  0  0  0  0  0  0  0  0  0  0
   -7.7063    4.3312  -12.8440 N   0  0  0  0  0  0  0  0  0  0  0  0
   -7.0045    5.3138  -13.8115 C   0  0  0  0  0  0  0  0  0  0  0  0
   -6.5091    6.3528  -13.6084 O   0  0  0  0  0  0  0  0  0  0  0  0
   -7.0702    4.8918  -15.2241 C   0  0  0  0  0  0  0  0  0  0  0  0
   -8.2312    4.3609  -15.7940 C   0  0  0  0  0  0  0  0  0  0  0  0
   -8.3221    4.2190  -17.1813 C   0  0  0  0  0  0  0  0  0  0  0  0
   -9.6142    3.7408  -17.7940 C   0  0  0  0  0  0  0  0  0  0  0  0
   -9.5977    2.5318  -18.6923 C   0  0  0  0  0  0  0  0  0  0  0  0
   -9.8709    3.8889  -19.2702 C   0  0  0  0  0  0  0  0  0  0  0  0
   -7.3247    4.5831  -18.0217 N   0  0  0  0  0  0  0  0  0  0  0  0
   -6.2364    5.0958  -17.4338 C   0  0  0  0  0  0  0  0  0  0  0  0
   -6.0209    5.2503  -16.0803 C   0  0  0  0  0  0  0  0  0  0  0  0
   -4.7340    5.8231  -15.9956 C   0  0  0  0  0  0  0  0  0  0  0  0
   -4.1843    6.0504  -17.1947 N   0  0  0  0  0  0  0  0  0  0  0  0
   -5.1662    5.6827  -18.0600 N   0  0  0  0  0  0  0  0  0  0  0  0
   -5.1547    6.1219  -19.4632 C   0  0  2  0  0  0  0  0  0  0  0  0
   -4.5262    5.0712  -20.3658 C   0  0  0  0  0  0  0  0  0  0  0  0
   -4.5884    7.5289  -19.6090 C   0  0  0  0  0  0  0  0  0  0  0  0
   -3.2439    7.8304  -20.2292 C   0  0  0  0  0  0  0  0  0  0  0  0
   -4.5051    8.2072  -20.9576 C   0  0  0  0  0  0  0  0  0  0  0  0
   -8.4958    3.3408  -10.7803 C   0  0  0  0  0  0  0  0  0  0  0  0
   -8.6117    3.4811   -9.4088 C   0  0  0  0  0  0  0  0  0  0  0  0
   -9.2538    2.6099   -8.4135 C   0  0  0  0  0  0  0  0  0  0  0  0
   -9.7681    1.5420   -8.6762 O   0  0  0  0  0  0  0  0  0  0  0  0
  1  2  1  0
  2  3  1  0
  2  4  1  0
  4  5  1  0
  5  6  1  0
  6  7  2  0
  7  8  1  0
  8  9  2  0
  9 10  1  0
 10 11  1  0
 11 12  2  0
 11 13  1  0
 13 14  2  0
 14 15  1  0
 15 16  1  0
 16 17  1  0
 17 18  1  0
 15 19  2  0
 19 20  1  0
 20 21  2  0
 21 22  1  0
 22 23  2  0
 23 24  1  0
 24 25  1  0
 25 26  1  6
 25 27  1  0
 27 28  1  0
 28 29  1  0
  9 30  1  0
 30 31  2  0
 31 32  1  0
 32 33  2  0
 32  4  1  0
 31  6  1  0
 21 13  1  0
 29 27  1  0
 18 16  1  0
 24 20  1  0
M  END
>  <name>  (109) 
P125678

>  <alias>  (109) 
None

>  <smina_score_min>  (109) 
-8.9

>  <exports>  (109) 
['/opt/xchem-fragalysis-2/maxwin/BulkDock/OUTPUTS/openbind_xx01zvns2b_c2_elabs_1LOUTNY.sdf', '/opt/xchem-fragalysis-2/maxwin/BulkDock/OUTPUTS/openbind_xx01zvns2b_c2_elabs_1LSYIIV.sdf', '/opt/xchem-fragalysis-2/maxwin/openbind-hippo/xx01zvns2b/cycle_02/gnina/openbind_xx01zvns2b_c2_elabs_scored_6.2plus_products.sdf']

>  <tags>  (109) 
syndirella_placed,openbind_xx01zvns2b_c2_elabs,openbind_xx01zvns2b_c2_elabs_scored_6.2plus,syndirella_product,openbind_xx01zvns2b_c2_elabs_scored,openbind_xx01zvns2b_c2_elabs_scored_top80percent,BulkDock Fragalysis export,openbind_xx01zvns2b_c2_elabs_scored_top80percent_despaghettified

>  <subsites>  (109) 
1 - Z4590/B/203/1

>  <smiles>  (109) 
CC(C)N1Cc2ccc(NC(=O)c3cc(C4CC4)nc4c3cnn4[C@H](C)C3CC3)cc2C1=O

>  <HIPPO Pose ID>  (109) 
125678

>  <energy_score>  (109) 
-50.152795

>  <inchikey>  (109) 
XTLTVBUJQGJJMF-OAHLLOKOSA-N

>  <gnina_score_min>  (109) 
6.288

>  <gnina_score>  (109) 
6.382

>  <ref_mols>  (109) 
Z3559a

>  <HIPPO Compound ID>  (109) 
179718

>  <distance_score>  (109) 
0.596973

>  <rmsd(smina/fragmenstein)>  (109) 
0.474

>  <ref_pdb>  (109) 
Z3559a

>  <inspiration_score>  (109) 
None

$$$$
P125681
     RDKit          3D

 33 38  0  0  0  0  0  0  0  0999 V2000
   -8.3075    4.8507   -4.0450 C   0  0  0  0  0  0  0  0  0  0  0  0
   -9.4204    3.8595   -3.7627 C   0  0  0  0  0  0  0  0  0  0  0  0
  -10.2310    3.4107   -4.9846 C   0  0  0  0  0  0  0  0  0  0  0  0
   -9.4750    2.5456   -6.0123 C   0  0  0  0  0  0  0  0  0  0  0  0
   -9.4389    3.2152   -7.2998 N   0  0  0  0  0  0  0  0  0  0  0  0
   -8.4990    4.3383   -7.3325 C   0  0  0  0  0  0  0  0  0  0  0  0
   -8.1707    4.4831   -8.7722 C   0  0  0  0  0  0  0  0  0  0  0  0
   -7.5892    5.5580   -9.4035 C   0  0  0  0  0  0  0  0  0  0  0  0
   -7.3696    5.4508  -10.7686 C   0  0  0  0  0  0  0  0  0  0  0  0
   -7.7335    4.2893  -11.4745 C   0  0  0  0  0  0  0  0  0  0  0  0
   -7.5039    4.2369  -12.8449 N   0  0  0  0  0  0  0  0  0  0  0  0
   -6.8888    5.2851  -13.8009 C   0  0  0  0  0  0  0  0  0  0  0  0
   -6.4082    6.3260  -13.5754 O   0  0  0  0  0  0  0  0  0  0  0  0
   -6.9935    4.8995  -15.2209 C   0  0  0  0  0  0  0  0  0  0  0  0
   -8.1673    4.3715  -15.7693 C   0  0  0  0  0  0  0  0  0  0  0  0
   -8.2879    4.2374  -17.1555 C   0  0  0  0  0  0  0  0  0  0  0  0
   -9.5869    3.7490  -17.7475 C   0  0  0  0  0  0  0  0  0  0  0  0
   -9.5714    2.5634  -18.6782 C   0  0  0  0  0  0  0  0  0  0  0  0
   -9.8883    3.9284  -19.2125 C   0  0  0  0  0  0  0  0  0  0  0  0
   -7.3091    4.6125  -18.0111 N   0  0  0  0  0  0  0  0  0  0  0  0
   -6.2069    5.1173  -17.4435 C   0  0  0  0  0  0  0  0  0  0  0  0
   -5.9634    5.2661  -16.0947 C   0  0  0  0  0  0  0  0  0  0  0  0
   -4.6734    5.8341  -16.0333 C   0  0  0  0  0  0  0  0  0  0  0  0
   -4.1426    6.0575  -17.2424 N   0  0  0  0  0  0  0  0  0  0  0  0
   -5.1431    5.6924  -18.0903 N   0  0  0  0  0  0  0  0  0  0  0  0
   -5.1525    6.1171  -19.4980 C   0  0  2  0  0  0  0  0  0  0  0  0
   -4.5623    5.0466  -20.4030 C   0  0  0  0  0  0  0  0  0  0  0  0
   -4.5627    7.5120  -19.6709 C   0  0  0  0  0  0  0  0  0  0  0  0
   -4.5239    8.1813  -21.0261 C   0  0  0  0  0  0  0  0  0  0  0  0
   -3.2401    7.7868  -20.3488 C   0  0  0  0  0  0  0  0  0  0  0  0
   -8.3222    3.2033  -10.8158 C   0  0  0  0  0  0  0  0  0  0  0  0
   -8.5296    3.3165   -9.4518 C   0  0  0  0  0  0  0  0  0  0  0  0
   -9.1147    2.3508   -8.4593 C   0  0  0  0  0  0  0  0  0  0  0  0
  1  2  1  0
  2  3  1  0
  3  4  1  0
  4  5  1  0
  5  6  1  0
  6  7  1  0
  7  8  2  0
  8  9  1  0
  9 10  2  0
 10 11  1  0
 11 12  1  0
 12 13  2  0
 12 14  1  0
 14 15  2  0
 15 16  1  0
 16 17  1  0
 17 18  1  0
 18 19  1  0
 16 20  2  0
 20 21  1  0
 21 22  2  0
 22 23  1  0
 23 24  2  0
 24 25  1  0
 25 26  1  0
 26 27  1  6
 26 28  1  0
 28 29  1  0
 29 30  1  0
 10 31  1  0
 31 32  2  0
 32 33  1  0
 33  5  1  0
 32  7  1  0
 22 14  1  0
 30 28  1  0
 19 17  1  0
 25 21  1  0
M  END
>  <name>  (110) 
P125681

>  <alias>  (110) 
None

>  <smina_score_min>  (110) 
-8.59

>  <exports>  (110) 
['/opt/xchem-fragalysis-2/maxwin/BulkDock/OUTPUTS/openbind_xx01zvns2b_c2_elabs_1LOUTNY.sdf', '/opt/xchem-fragalysis-2/maxwin/BulkDock/OUTPUTS/openbind_xx01zvns2b_c2_elabs_1LSYIIV.sdf', '/opt/xchem-fragalysis-2/maxwin/openbind-hippo/xx01zvns2b/cycle_02/gnina/openbind_xx01zvns2b_c2_elabs_scored_6.2plus_products.sdf']

>  <tags>  (110) 
syndirella_placed,openbind_xx01zvns2b_c2_elabs,openbind_xx01zvns2b_c2_elabs_scored_6.2plus,syndirella_product,openbind_xx01zvns2b_c2_elabs_scored,openbind_xx01zvns2b_c2_elabs_scored_top80percent,BulkDock Fragalysis export,openbind_xx01zvns2b_c2_elabs_scored_top80percent_despaghettified

>  <subsites>  (110) 
1 - Z4590/B/203/1

>  <smiles>  (110) 
CCCCN1Cc2ccc(NC(=O)c3cc(C4CC4)nc4c3cnn4[C@H](C)C3CC3)cc2C1

>  <HIPPO Pose ID>  (110) 
125681

>  <energy_score>  (110) 
-86.799568

>  <inchikey>  (110) 
ZGDOFLCFCBKDJL-QGZVFWFLSA-N

>  <gnina_score_min>  (110) 
6.522

>  <gnina_score>  (110) 
6.494

>  <ref_mols>  (110) 
Z3559a

>  <HIPPO Compound ID>  (110) 
179684

>  <distance_score>  (110) 
0.587416

>  <rmsd(smina/fragmenstein)>  (110) 
0.905

>  <ref_pdb>  (110) 
Z3559a

>  <inspiration_score>  (110) 
None

$$$$
P125810
     RDKit          3D

 34 39  0  0  0  0  0  0  0  0999 V2000
  -11.3856    2.0055   -5.2947 C   0  0  0  0  0  0  0  0  0  0  0  0
  -10.5475    2.9465   -5.9310 O   0  0  0  0  0  0  0  0  0  0  0  0
   -9.3143    2.3184   -6.2747 C   0  0  0  0  0  0  0  0  0  0  0  0
   -8.8812    2.9017   -7.4927 N   0  0  0  0  0  0  0  0  0  0  0  0
   -8.2442    4.0994   -7.5484 C   0  0  0  0  0  0  0  0  0  0  0  0
   -7.8369    4.8244   -6.6579 O   0  0  0  0  0  0  0  0  0  0  0  0
   -8.1011    4.3973   -8.9645 C   0  0  0  0  0  0  0  0  0  0  0  0
   -7.5932    5.5205   -9.5685 C   0  0  0  0  0  0  0  0  0  0  0  0
   -7.5732    5.5234  -10.9622 C   0  0  0  0  0  0  0  0  0  0  0  0
   -8.0273    4.4137  -11.7156 C   0  0  0  0  0  0  0  0  0  0  0  0
   -7.8894    4.4388  -13.1032 N   0  0  0  0  0  0  0  0  0  0  0  0
   -7.3170    5.5293  -14.0346 C   0  0  0  0  0  0  0  0  0  0  0  0
   -6.9418    6.6090  -13.7948 O   0  0  0  0  0  0  0  0  0  0  0  0
   -7.1369    5.0724  -15.4302 C   0  0  0  0  0  0  0  0  0  0  0  0
   -8.1406    4.4655  -16.2006 C   0  0  0  0  0  0  0  0  0  0  0  0
   -7.9328    4.2789  -17.5798 C   0  0  0  0  0  0  0  0  0  0  0  0
   -8.9599    3.7699  -18.5552 C   0  0  0  0  0  0  0  0  0  0  0  0
   -9.5477    2.4097  -18.3471 C   0  0  0  0  0  0  0  0  0  0  0  0
  -10.4199    3.6401  -18.2766 C   0  0  0  0  0  0  0  0  0  0  0  0
   -6.7772    4.6081  -18.1891 N   0  0  0  0  0  0  0  0  0  0  0  0
   -5.8570    5.1893  -17.4209 C   0  0  0  0  0  0  0  0  0  0  0  0
   -5.9500    5.4511  -16.0747 C   0  0  0  0  0  0  0  0  0  0  0  0
   -4.7504    6.1313  -15.7761 C   0  0  0  0  0  0  0  0  0  0  0  0
   -3.9796    6.3285  -16.8522 N   0  0  0  0  0  0  0  0  0  0  0  0
   -4.6667    5.7132  -17.8490 N   0  0  0  0  0  0  0  0  0  0  0  0
   -4.2757    5.8191  -19.2597 C   0  0  1  0  0  0  0  0  0  0  0  0
   -4.6223    7.2058  -19.8078 C   0  0  0  0  0  0  0  0  0  0  0  0
   -2.8503    5.4374  -19.6082 C   0  0  0  0  0  0  0  0  0  0  0  0
   -1.6520    6.2062  -19.1013 C   0  0  0  0  0  0  0  0  0  0  0  0
   -1.8823    4.7918  -18.6472 C   0  0  0  0  0  0  0  0  0  0  0  0
   -8.5596    3.2937  -11.0733 C   0  0  0  0  0  0  0  0  0  0  0  0
   -8.5999    3.3288   -9.6898 C   0  0  0  0  0  0  0  0  0  0  0  0
   -9.1603    2.3872   -8.7252 C   0  0  0  0  0  0  0  0  0  0  0  0
   -9.7868    1.3948   -9.0348 O   0  0  0  0  0  0  0  0  0  0  0  0
  1  2  1  0
  2  3  1  0
  3  4  1  0
  4  5  1  0
  5  6  2  0
  5  7  1  0
  7  8  2  0
  8  9  1  0
  9 10  2  0
 10 11  1  0
 11 12  1  0
 12 13  2  0
 12 14  1  0
 14 15  2  0
 15 16  1  0
 16 17  1  0
 17 18  1  0
 18 19  1  0
 16 20  2  0
 20 21  1  0
 21 22  2  0
 22 23  1  0
 23 24  2  0
 24 25  1  0
 25 26  1  0
 26 27  1  1
 26 28  1  0
 28 29  1  0
 29 30  1  0
 10 31  1  0
 31 32  2  0
 32 33  1  0
 33 34  2  0
 33  4  1  0
 32  7  1  0
 22 14  1  0
 30 28  1  0
 19 17  1  0
 25 21  1  0
M  END
>  <name>  (111) 
P125810

>  <alias>  (111) 
None

>  <smina_score_min>  (111) 
-8.937

>  <exports>  (111) 
['/opt/xchem-fragalysis-2/maxwin/BulkDock/OUTPUTS/openbind_xx01zvns2b_c2_elabs_1LOUTNY.sdf', '/opt/xchem-fragalysis-2/maxwin/BulkDock/OUTPUTS/openbind_xx01zvns2b_c2_elabs_1LSYIIV.sdf', '/opt/xchem-fragalysis-2/maxwin/openbind-hippo/xx01zvns2b/cycle_02/gnina/openbind_xx01zvns2b_c2_elabs_scored_6.2plus_products.sdf']

>  <tags>  (111) 
syndirella_placed,openbind_xx01zvns2b_c2_elabs,openbind_xx01zvns2b_c2_elabs_scored_6.2plus,syndirella_product,openbind_xx01zvns2b_c2_elabs_scored,openbind_xx01zvns2b_c2_elabs_scored_top80percent,BulkDock Fragalysis export,openbind_xx01zvns2b_c2_elabs_scored_top80percent_despaghettified

>  <subsites>  (111) 
1 - Z4590/B/203/1

>  <smiles>  (111) 
COCN1C(=O)c2ccc(NC(=O)c3cc(C4CC4)nc4c3cnn4[C@@H](C)C3CC3)cc2C1=O

>  <HIPPO Pose ID>  (111) 
125810

>  <energy_score>  (111) 
-30.233018

>  <inchikey>  (111) 
AFNPHWROPCUWBC-ZDUSSCGKSA-N

>  <gnina_score_min>  (111) 
6.521

>  <gnina_score>  (111) 
6.629

>  <ref_mols>  (111) 
Z3559a

>  <HIPPO Compound ID>  (111) 
183033

>  <distance_score>  (111) 
0.735928

>  <rmsd(smina/fragmenstein)>  (111) 
0.542

>  <ref_pdb>  (111) 
Z3559a

>  <inspiration_score>  (111) 
None

$$$$
P125813
     RDKit          3D

 34 39  0  0  0  0  0  0  0  0999 V2000
   -7.0075    4.8018   -3.6484 C   0  0  0  0  0  0  0  0  0  0  0  0
   -7.2776    3.7364   -4.5553 O   0  0  0  0  0  0  0  0  0  0  0  0
   -8.7025    3.4999   -4.6359 C   0  0  0  0  0  0  0  0  0  0  0  0
   -9.0727    2.6425   -5.8602 C   0  0  0  0  0  0  0  0  0  0  0  0
   -8.9455    3.2784   -7.1547 N   0  0  0  0  0  0  0  0  0  0  0  0
   -8.9672    2.4831   -8.3846 C   0  0  0  0  0  0  0  0  0  0  0  0
   -8.5317    3.4793   -9.4086 C   0  0  0  0  0  0  0  0  0  0  0  0
   -8.3200    3.3506  -10.7708 C   0  0  0  0  0  0  0  0  0  0  0  0
   -7.8746    4.4836  -11.4674 C   0  0  0  0  0  0  0  0  0  0  0  0
   -7.6091    4.4093  -12.8283 N   0  0  0  0  0  0  0  0  0  0  0  0
   -7.1436    5.4973  -13.8202 C   0  0  0  0  0  0  0  0  0  0  0  0
   -6.8360    6.6082  -13.6354 O   0  0  0  0  0  0  0  0  0  0  0  0
   -7.1127    5.0121  -15.2050 C   0  0  0  0  0  0  0  0  0  0  0  0
   -8.2262    4.4134  -15.7932 C   0  0  0  0  0  0  0  0  0  0  0  0
   -8.2361    4.1858  -17.1708 C   0  0  0  0  0  0  0  0  0  0  0  0
   -9.5152    3.7086  -17.8176 C   0  0  0  0  0  0  0  0  0  0  0  0
   -9.7208    3.8423  -19.3031 C   0  0  0  0  0  0  0  0  0  0  0  0
   -9.5046    2.4873  -18.6965 C   0  0  0  0  0  0  0  0  0  0  0  0
   -7.1742    4.4662  -17.9690 N   0  0  0  0  0  0  0  0  0  0  0  0
   -6.1298    5.0492  -17.3571 C   0  0  0  0  0  0  0  0  0  0  0  0
   -6.0298    5.3559  -16.0158 C   0  0  0  0  0  0  0  0  0  0  0  0
   -4.8008    6.0304  -15.8928 C   0  0  0  0  0  0  0  0  0  0  0  0
   -4.1755    6.1814  -17.0631 N   0  0  0  0  0  0  0  0  0  0  0  0
   -4.9820    5.5322  -17.9447 N   0  0  0  0  0  0  0  0  0  0  0  0
   -4.7456    5.5887  -19.3931 C   0  0  1  0  0  0  0  0  0  0  0  0
   -5.2441    6.9221  -19.9542 C   0  0  0  0  0  0  0  0  0  0  0  0
   -3.3397    5.2993  -19.8916 C   0  0  0  0  0  0  0  0  0  0  0  0
   -2.1587    6.1802  -19.5516 C   0  0  0  0  0  0  0  0  0  0  0  0
   -2.2060    4.7656  -19.0459 C   0  0  0  0  0  0  0  0  0  0  0  0
   -7.6689    5.7121  -10.8081 C   0  0  0  0  0  0  0  0  0  0  0  0
   -7.9001    5.8396   -9.4492 C   0  0  0  0  0  0  0  0  0  0  0  0
   -8.3219    4.7106   -8.7896 C   0  0  0  0  0  0  0  0  0  0  0  0
   -8.6108    4.5933   -7.3704 C   0  0  0  0  0  0  0  0  0  0  0  0
   -8.5533    5.5380   -6.6055 O   0  0  0  0  0  0  0  0  0  0  0  0
  1  2  1  0
  2  3  1  0
  3  4  1  0
  4  5  1  0
  5  6  1  0
  6  7  1  0
  7  8  2  0
  8  9  1  0
  9 10  1  0
 10 11  1  0
 11 12  2  0
 11 13  1  0
 13 14  2  0
 14 15  1  0
 15 16  1  0
 16 17  1  0
 17 18  1  0
 15 19  2  0
 19 20  1  0
 20 21  2  0
 21 22  1  0
 22 23  2  0
 23 24  1  0
 24 25  1  0
 25 26  1  1
 25 27  1  0
 27 28  1  0
 28 29  1  0
  9 30  2  0
 30 31  1  0
 31 32  2  0
 32 33  1  0
 33 34  2  0
 33  5  1  0
 32  7  1  0
 21 13  1  0
 29 27  1  0
 18 16  1  0
 24 20  1  0
M  END
>  <name>  (112) 
P125813

>  <alias>  (112) 
None

>  <smina_score_min>  (112) 
-8.29

>  <exports>  (112) 
['/opt/xchem-fragalysis-2/maxwin/BulkDock/OUTPUTS/openbind_xx01zvns2b_c2_elabs_1LOUTNY.sdf', '/opt/xchem-fragalysis-2/maxwin/BulkDock/OUTPUTS/openbind_xx01zvns2b_c2_elabs_1LSYIIV.sdf', '/opt/xchem-fragalysis-2/maxwin/openbind-hippo/xx01zvns2b/cycle_02/gnina/openbind_xx01zvns2b_c2_elabs_scored_6.2plus_products.sdf']

>  <tags>  (112) 
syndirella_placed,openbind_xx01zvns2b_c2_elabs,openbind_xx01zvns2b_c2_elabs_scored_6.2plus,syndirella_product,openbind_xx01zvns2b_c2_elabs_scored,openbind_xx01zvns2b_c2_elabs_scored_top80percent,BulkDock Fragalysis export,openbind_xx01zvns2b_c2_elabs_scored_top80percent_despaghettified

>  <subsites>  (112) 
1 - Z4590/B/203/1

>  <smiles>  (112) 
COCCN1Cc2cc(NC(=O)c3cc(C4CC4)nc4c3cnn4[C@@H](C)C3CC3)ccc2C1=O

>  <HIPPO Pose ID>  (112) 
125813

>  <energy_score>  (112) 
-18.583082

>  <inchikey>  (112) 
QIFYNJKBFLATNT-HNNXBMFYSA-N

>  <gnina_score_min>  (112) 
6.411

>  <gnina_score>  (112) 
6.456

>  <ref_mols>  (112) 
Z3559a

>  <HIPPO Compound ID>  (112) 
183032

>  <distance_score>  (112) 
0.601079

>  <rmsd(smina/fragmenstein)>  (112) 
0.849

>  <ref_pdb>  (112) 
Z3559a

>  <inspiration_score>  (112) 
None

$$$$
P125815
     RDKit          3D

 34 39  0  0  0  0  0  0  0  0999 V2000
   -4.8970    7.5188  -19.6541 C   0  0  0  0  0  0  0  0  0  0  0  0
   -5.0357    6.0009  -19.5067 C   0  0  1  0  0  0  0  0  0  0  0  0
   -4.0387    5.1914  -20.3038 C   0  0  0  0  0  0  0  0  0  0  0  0
   -2.5537    5.2324  -20.0260 C   0  0  0  0  0  0  0  0  0  0  0  0
   -3.0822    5.7823  -21.3196 C   0  0  0  0  0  0  0  0  0  0  0  0
   -5.0863    5.6198  -18.0884 N   0  0  0  0  0  0  0  0  0  0  0  0
   -4.1257    6.0419  -17.2231 N   0  0  0  0  0  0  0  0  0  0  0  0
   -4.6738    5.8273  -16.0225 C   0  0  0  0  0  0  0  0  0  0  0  0
   -5.9591    5.2518  -16.1000 C   0  0  0  0  0  0  0  0  0  0  0  0
   -7.0008    4.8966  -15.2334 C   0  0  0  0  0  0  0  0  0  0  0  0
   -6.9037    5.2850  -13.8122 C   0  0  0  0  0  0  0  0  0  0  0  0
   -6.3377    6.2812  -13.5826 O   0  0  0  0  0  0  0  0  0  0  0  0
   -7.6035    4.2866  -12.8594 N   0  0  0  0  0  0  0  0  0  0  0  0
   -7.8263    4.3518  -11.4885 C   0  0  0  0  0  0  0  0  0  0  0  0
   -7.4344    5.5185  -10.8068 C   0  0  0  0  0  0  0  0  0  0  0  0
   -7.5896    5.6339   -9.4362 C   0  0  0  0  0  0  0  0  0  0  0  0
   -8.1489    4.5664   -8.7746 C   0  0  0  0  0  0  0  0  0  0  0  0
   -8.5689    3.4065   -9.4287 C   0  0  0  0  0  0  0  0  0  0  0  0
   -8.4112    3.2799  -10.8005 C   0  0  0  0  0  0  0  0  0  0  0  0
   -9.1310    2.4605   -8.4017 C   0  0  0  0  0  0  0  0  0  0  0  0
   -9.3104    3.3174   -7.1985 N   0  0  0  0  0  0  0  0  0  0  0  0
   -9.2194    2.6150   -5.9056 C   0  0  0  0  0  0  0  0  0  0  0  0
   -8.8486    3.4782   -4.6671 C   0  0  0  0  0  0  0  0  0  0  0  0
   -9.4413    4.6982   -4.7002 F   0  0  0  0  0  0  0  0  0  0  0  0
   -7.5008    3.6960   -4.6184 F   0  0  0  0  0  0  0  0  0  0  0  0
   -9.1877    2.9306   -3.4846 F   0  0  0  0  0  0  0  0  0  0  0  0
   -8.3605    4.4284   -7.3158 C   0  0  0  0  0  0  0  0  0  0  0  0
   -8.1689    4.3698  -15.7911 C   0  0  0  0  0  0  0  0  0  0  0  0
   -8.2717    4.2227  -17.1774 C   0  0  0  0  0  0  0  0  0  0  0  0
   -9.5725    3.7444  -17.7747 C   0  0  0  0  0  0  0  0  0  0  0  0
   -9.8576    3.9096  -19.2440 C   0  0  0  0  0  0  0  0  0  0  0  0
   -9.5678    2.5466  -18.6887 C   0  0  0  0  0  0  0  0  0  0  0  0
   -7.2753    4.5708  -18.0268 N   0  0  0  0  0  0  0  0  0  0  0  0
   -6.1763    5.0782  -17.4517 C   0  0  0  0  0  0  0  0  0  0  0  0
  2  1  1  1
  2  3  1  0
  3  4  1  0
  4  5  1  0
  2  6  1  0
  6  7  1  0
  7  8  2  0
  8  9  1  0
  9 10  2  0
 10 11  1  0
 11 12  2  0
 11 13  1  0
 13 14  1  0
 14 15  2  0
 15 16  1  0
 16 17  2  0
 17 18  1  0
 18 19  2  0
 18 20  1  0
 20 21  1  0
 21 22  1  0
 22 23  1  0
 23 24  1  0
 23 25  1  0
 23 26  1  0
 21 27  1  0
 10 28  1  0
 28 29  2  0
 29 30  1  0
 30 31  1  0
 31 32  1  0
 29 33  1  0
 33 34  2  0
  5  3  1  0
 34  6  1  0
 34  9  1  0
 19 14  1  0
 32 30  1  0
 27 17  1  0
M  END
>  <name>  (113) 
P125815

>  <alias>  (113) 
None

>  <smina_score_min>  (113) 
-9.199

>  <exports>  (113) 
['/opt/xchem-fragalysis-2/maxwin/BulkDock/OUTPUTS/openbind_xx01zvns2b_c2_elabs_1LOUTNY.sdf', '/opt/xchem-fragalysis-2/maxwin/BulkDock/OUTPUTS/openbind_xx01zvns2b_c2_elabs_1LSYIIV.sdf', '/opt/xchem-fragalysis-2/maxwin/openbind-hippo/xx01zvns2b/cycle_02/gnina/openbind_xx01zvns2b_c2_elabs_scored_6.2plus_products.sdf']

>  <tags>  (113) 
syndirella_placed,openbind_xx01zvns2b_c2_elabs,openbind_xx01zvns2b_c2_elabs_scored_6.2plus,syndirella_product,openbind_xx01zvns2b_c2_elabs_scored,openbind_xx01zvns2b_c2_elabs_scored_top80percent,BulkDock Fragalysis export,openbind_xx01zvns2b_c2_elabs_scored_top80percent_despaghettified

>  <subsites>  (113) 
1 - Z4590/B/203/1

>  <smiles>  (113) 
C[C@@H](C1CC1)n1ncc2c(C(=O)Nc3ccc4c(c3)CN(CC(F)(F)F)C4)cc(C3CC3)nc21

>  <HIPPO Pose ID>  (113) 
125815

>  <energy_score>  (113) 
-40.325366

>  <inchikey>  (113) 
FMXMZNDZAQHERK-AWEZNQCLSA-N

>  <gnina_score_min>  (113) 
6.416

>  <gnina_score>  (113) 
6.491

>  <ref_mols>  (113) 
Z3559a

>  <HIPPO Compound ID>  (113) 
183030

>  <distance_score>  (113) 
0.593424

>  <rmsd(smina/fragmenstein)>  (113) 
1.195

>  <ref_pdb>  (113) 
Z3559a

>  <inspiration_score>  (113) 
None

$$$$
P125816
     RDKit          3D

 34 39  0  0  0  0  0  0  0  0999 V2000
   -8.4186    5.0524   -3.4396 C   0  0  0  0  0  0  0  0  0  0  0  0
   -8.7710    3.8441   -4.0985 O   0  0  0  0  0  0  0  0  0  0  0  0
  -10.1252    3.8774   -4.5534 C   0  0  0  0  0  0  0  0  0  0  0  0
  -10.5263    2.5882   -5.2610 C   0  0  0  0  0  0  0  0  0  0  0  0
   -9.5722    2.0567   -6.3302 C   0  0  0  0  0  0  0  0  0  0  0  0
   -9.5336    2.9005   -7.5082 N   0  0  0  0  0  0  0  0  0  0  0  0
   -8.6154    4.0463   -7.3888 C   0  0  0  0  0  0  0  0  0  0  0  0
   -8.2473    4.3415   -8.8017 C   0  0  0  0  0  0  0  0  0  0  0  0
   -7.7336    5.4999   -9.3427 C   0  0  0  0  0  0  0  0  0  0  0  0
   -7.5363    5.5325  -10.7196 C   0  0  0  0  0  0  0  0  0  0  0  0
   -7.8385    4.4144  -11.5158 C   0  0  0  0  0  0  0  0  0  0  0  0
   -7.6623    4.4597  -12.8890 N   0  0  0  0  0  0  0  0  0  0  0  0
   -7.1751    5.6051  -13.7991 C   0  0  0  0  0  0  0  0  0  0  0  0
   -6.9184    6.7148  -13.5466 O   0  0  0  0  0  0  0  0  0  0  0  0
   -7.0748    5.1633  -15.1981 C   0  0  0  0  0  0  0  0  0  0  0  0
   -8.0978    4.4518  -15.8281 C   0  0  0  0  0  0  0  0  0  0  0  0
   -7.9695    4.1087  -17.1741 C   0  0  0  0  0  0  0  0  0  0  0  0
   -9.0173    3.2316  -17.7997 C   0  0  0  0  0  0  0  0  0  0  0  0
   -9.0107    2.9838  -19.2808 C   0  0  0  0  0  0  0  0  0  0  0  0
  -10.1125    3.7947  -18.6661 C   0  0  0  0  0  0  0  0  0  0  0  0
   -6.9071    4.4798  -17.9290 N   0  0  0  0  0  0  0  0  0  0  0  0
   -5.9617    5.1802  -17.2837 C   0  0  0  0  0  0  0  0  0  0  0  0
   -5.9627    5.5391  -15.9515 C   0  0  0  0  0  0  0  0  0  0  0  0
   -4.7622    6.2523  -15.7729 C   0  0  0  0  0  0  0  0  0  0  0  0
   -4.0618    6.3782  -16.9044 N   0  0  0  0  0  0  0  0  0  0  0  0
   -4.8194    5.7199  -17.8200 N   0  0  0  0  0  0  0  0  0  0  0  0
   -4.4803    5.7318  -19.2473 C   0  0  1  0  0  0  0  0  0  0  0  0
   -5.3254    6.7811  -19.9736 C   0  0  0  0  0  0  0  0  0  0  0  0
   -3.0107    6.0055  -19.5064 C   0  0  0  0  0  0  0  0  0  0  0  0
   -1.9463    4.9550  -19.3107 C   0  0  0  0  0  0  0  0  0  0  0  0
   -2.3271    5.3821  -20.7003 C   0  0  0  0  0  0  0  0  0  0  0  0
   -8.3349    3.2390  -10.9503 C   0  0  0  0  0  0  0  0  0  0  0  0
   -8.5431    3.2274   -9.5882 C   0  0  0  0  0  0  0  0  0  0  0  0
   -9.1075    2.1554   -8.7145 C   0  0  0  0  0  0  0  0  0  0  0  0
  1  2  1  0
  2  3  1  0
  3  4  1  0
  4  5  1  0
  5  6  1  0
  6  7  1  0
  7  8  1  0
  8  9  2  0
  9 10  1  0
 10 11  2  0
 11 12  1  0
 12 13  1  0
 13 14  2  0
 13 15  1  0
 15 16  2  0
 16 17  1  0
 17 18  1  0
 18 19  1  0
 19 20  1  0
 17 21  2  0
 21 22  1  0
 22 23  2  0
 23 24  1  0
 24 25  2  0
 25 26  1  0
 26 27  1  0
 27 28  1  6
 27 29  1  0
 29 30  1  0
 30 31  1  0
 11 32  1  0
 32 33  2  0
 33 34  1  0
 34  6  1  0
 33  8  1  0
 23 15  1  0
 31 29  1  0
 20 18  1  0
 26 22  1  0
M  END
>  <name>  (114) 
P125816

>  <alias>  (114) 
None

>  <smina_score_min>  (114) 
-8.417

>  <exports>  (114) 
['/opt/xchem-fragalysis-2/maxwin/BulkDock/OUTPUTS/openbind_xx01zvns2b_c2_elabs_1LOUTNY.sdf', '/opt/xchem-fragalysis-2/maxwin/BulkDock/OUTPUTS/openbind_xx01zvns2b_c2_elabs_1LSYIIV.sdf', '/opt/xchem-fragalysis-2/maxwin/openbind-hippo/xx01zvns2b/cycle_02/gnina/openbind_xx01zvns2b_c2_elabs_scored_6.2plus_products.sdf']

>  <tags>  (114) 
syndirella_placed,openbind_xx01zvns2b_c2_elabs,openbind_xx01zvns2b_c2_elabs_scored_6.2plus,syndirella_product,openbind_xx01zvns2b_c2_elabs_scored,openbind_xx01zvns2b_c2_elabs_scored_top80percent,BulkDock Fragalysis export,openbind_xx01zvns2b_c2_elabs_scored_top80percent_despaghettified

>  <subsites>  (114) 
1 - Z4590/B/203/1

>  <smiles>  (114) 
COCCCN1Cc2ccc(NC(=O)c3cc(C4CC4)nc4c3cnn4[C@@H](C)C3CC3)cc2C1

>  <HIPPO Pose ID>  (114) 
125816

>  <energy_score>  (114) 
-68.813885

>  <inchikey>  (114) 
FWULXOOCXGFKSG-KRWDZBQOSA-N

>  <gnina_score_min>  (114) 
6.697

>  <gnina_score>  (114) 
6.613

>  <ref_mols>  (114) 
Z3559a

>  <HIPPO Compound ID>  (114) 
183034

>  <distance_score>  (114) 
0.640399

>  <rmsd(smina/fragmenstein)>  (114) 
0.407

>  <ref_pdb>  (114) 
Z3559a

>  <inspiration_score>  (114) 
None

$$$$
P125937
     RDKit          3D

 35 41  0  0  0  0  0  0  0  0999 V2000
   -5.1267    4.7768  -20.7609 C   0  0  0  0  0  0  0  0  0  0  0  0
   -4.6828    5.8095  -19.7244 C   0  0  1  0  0  0  0  0  0  0  0  0
   -5.3427    7.1442  -19.9932 C   0  0  0  0  0  0  0  0  0  0  0  0
   -4.7150    8.4370  -19.5288 C   0  0  0  0  0  0  0  0  0  0  0  0
   -4.7410    8.1037  -20.9937 C   0  0  0  0  0  0  0  0  0  0  0  0
   -4.8560    5.4396  -18.3217 N   0  0  0  0  0  0  0  0  0  0  0  0
   -3.8736    5.8022  -17.4462 N   0  0  0  0  0  0  0  0  0  0  0  0
   -4.4822    5.7568  -16.2594 C   0  0  0  0  0  0  0  0  0  0  0  0
   -5.7996    5.2760  -16.3502 C   0  0  0  0  0  0  0  0  0  0  0  0
   -6.8739    5.0527  -15.4957 C   0  0  0  0  0  0  0  0  0  0  0  0
   -6.7875    5.5437  -14.1223 C   0  0  0  0  0  0  0  0  0  0  0  0
   -6.3920    6.6265  -13.9494 O   0  0  0  0  0  0  0  0  0  0  0  0
   -7.2809    4.4904  -13.1173 N   0  0  0  0  0  0  0  0  0  0  0  0
   -7.4740    4.5737  -11.7528 C   0  0  0  0  0  0  0  0  0  0  0  0
   -7.1204    5.7563  -11.0820 C   0  0  0  0  0  0  0  0  0  0  0  0
   -7.2511    5.8588   -9.7093 C   0  0  0  0  0  0  0  0  0  0  0  0
   -7.7294    4.7570   -9.0406 C   0  0  0  0  0  0  0  0  0  0  0  0
   -8.1062    3.5863   -9.7008 C   0  0  0  0  0  0  0  0  0  0  0  0
   -7.9947    3.4766  -11.0702 C   0  0  0  0  0  0  0  0  0  0  0  0
   -8.6397    2.5927   -8.7248 C   0  0  0  0  0  0  0  0  0  0  0  0
   -8.4638    3.2880   -7.4299 N   0  0  0  0  0  0  0  0  0  0  0  0
   -9.3387    3.0436   -6.3950 C   0  0  0  0  0  0  0  0  0  0  0  0
  -10.1900    1.9444   -6.4341 C   0  0  0  0  0  0  0  0  0  0  0  0
  -11.2459    1.8565   -5.5564 C   0  0  0  0  0  0  0  0  0  0  0  0
  -11.4094    2.8106   -4.5804 C   0  0  0  0  0  0  0  0  0  0  0  0
  -10.4620    3.8019   -4.3910 C   0  0  0  0  0  0  0  0  0  0  0  0
   -9.4255    3.9100   -5.2949 C   0  0  0  0  0  0  0  0  0  0  0  0
   -7.9474    4.6408   -7.5823 C   0  0  0  0  0  0  0  0  0  0  0  0
   -8.0525    4.5189  -16.0064 C   0  0  0  0  0  0  0  0  0  0  0  0
   -8.1453    4.2662  -17.3729 C   0  0  0  0  0  0  0  0  0  0  0  0
   -9.4638    3.7642  -17.9117 C   0  0  0  0  0  0  0  0  0  0  0  0
   -9.4971    2.5186  -18.7555 C   0  0  0  0  0  0  0  0  0  0  0  0
   -9.7834    3.8549  -19.3763 C   0  0  0  0  0  0  0  0  0  0  0  0
   -7.1288    4.5250  -18.2409 N   0  0  0  0  0  0  0  0  0  0  0  0
   -6.0036    5.0160  -17.6907 C   0  0  0  0  0  0  0  0  0  0  0  0
  2  1  1  6
  2  3  1  0
  3  4  1  0
  4  5  1  0
  2  6  1  0
  6  7  1  0
  7  8  2  0
  8  9  1  0
  9 10  2  0
 10 11  1  0
 11 12  2  0
 11 13  1  0
 13 14  1  0
 14 15  2  0
 15 16  1  0
 16 17  2  0
 17 18  1  0
 18 19  2  0
 18 20  1  0
 20 21  1  0
 21 22  1  0
 22 23  2  0
 23 24  1  0
 24 25  2  0
 25 26  1  0
 26 27  2  0
 21 28  1  0
 10 29  1  0
 29 30  2  0
 30 31  1  0
 31 32  1  0
 32 33  1  0
 30 34  1  0
 34 35  2  0
  5  3  1  0
 35  6  1  0
 35  9  1  0
 19 14  1  0
 27 22  1  0
 33 31  1  0
 28 17  1  0
M  END
>  <name>  (115) 
P125937

>  <alias>  (115) 
None

>  <smina_score_min>  (115) 
-9.011

>  <exports>  (115) 
['/opt/xchem-fragalysis-2/maxwin/BulkDock/OUTPUTS/openbind_xx01zvns2b_c2_elabs_1LOUTNY.sdf', '/opt/xchem-fragalysis-2/maxwin/BulkDock/OUTPUTS/openbind_xx01zvns2b_c2_elabs_1LSYIIV.sdf', '/opt/xchem-fragalysis-2/maxwin/openbind-hippo/xx01zvns2b/cycle_02/gnina/openbind_xx01zvns2b_c2_elabs_scored_6.2plus_products.sdf']

>  <tags>  (115) 
syndirella_placed,openbind_xx01zvns2b_c2_elabs,openbind_xx01zvns2b_c2_elabs_scored_6.2plus,syndirella_product,openbind_xx01zvns2b_c2_elabs_scored,openbind_xx01zvns2b_c2_elabs_scored_top80percent,BulkDock Fragalysis export,openbind_xx01zvns2b_c2_elabs_scored_top80percent_despaghettified

>  <subsites>  (115) 
1 - Z4590/B/203/1

>  <smiles>  (115) 
C[C@@H](C1CC1)n1ncc2c(C(=O)Nc3ccc4c(c3)CN(c3ccccc3)C4)cc(C3CC3)nc21

>  <HIPPO Pose ID>  (115) 
125937

>  <energy_score>  (115) 
-39.528626

>  <inchikey>  (115) 
HSVLWLRPJOQGSN-SFHVURJKSA-N

>  <gnina_score_min>  (115) 
6.498

>  <gnina_score>  (115) 
6.534

>  <ref_mols>  (115) 
Z3559a

>  <HIPPO Compound ID>  (115) 
183037

>  <distance_score>  (115) 
0.906991

>  <rmsd(smina/fragmenstein)>  (115) 
0.665

>  <ref_pdb>  (115) 
Z3559a

>  <inspiration_score>  (115) 
None

$$$$
P125962
     RDKit          3D

 35 41  0  0  0  0  0  0  0  0999 V2000
   -5.3856    7.0876  -19.7818 C   0  0  0  0  0  0  0  0  0  0  0  0
   -4.7743    5.7289  -19.4315 C   0  0  1  0  0  0  0  0  0  0  0  0
   -3.3237    5.6643  -19.8916 C   0  0  0  0  0  0  0  0  0  0  0  0
   -2.8552    4.5964  -20.8545 C   0  0  0  0  0  0  0  0  0  0  0  0
   -2.9319    6.0171  -21.3146 C   0  0  0  0  0  0  0  0  0  0  0  0
   -4.9422    5.5052  -17.9829 N   0  0  0  0  0  0  0  0  0  0  0  0
   -4.0508    6.0190  -17.0914 N   0  0  0  0  0  0  0  0  0  0  0  0
   -4.6512    5.8459  -15.9107 C   0  0  0  0  0  0  0  0  0  0  0  0
   -5.9230    5.2517  -16.0244 C   0  0  0  0  0  0  0  0  0  0  0  0
   -6.9889    4.9078  -15.1871 C   0  0  0  0  0  0  0  0  0  0  0  0
   -6.9366    5.3037  -13.7684 C   0  0  0  0  0  0  0  0  0  0  0  0
   -6.5329    6.3749  -13.5346 O   0  0  0  0  0  0  0  0  0  0  0  0
   -7.4760    4.2062  -12.8203 N   0  0  0  0  0  0  0  0  0  0  0  0
   -7.7106    4.2321  -11.4488 C   0  0  0  0  0  0  0  0  0  0  0  0
   -7.3805    5.4013  -10.7294 C   0  0  0  0  0  0  0  0  0  0  0  0
   -7.6629    5.5164   -9.3753 C   0  0  0  0  0  0  0  0  0  0  0  0
   -8.2491    4.4271   -8.7746 C   0  0  0  0  0  0  0  0  0  0  0  0
   -8.5463    3.2633   -9.4484 C   0  0  0  0  0  0  0  0  0  0  0  0
   -8.2986    3.1350  -10.8046 C   0  0  0  0  0  0  0  0  0  0  0  0
   -9.2603    2.4081   -8.5001 C   0  0  0  0  0  0  0  0  0  0  0  0
   -9.8385    1.3923   -8.8354 O   0  0  0  0  0  0  0  0  0  0  0  0
   -9.2742    3.0657   -7.2853 N   0  0  0  0  0  0  0  0  0  0  0  0
  -10.2287    2.6717   -6.2733 C   0  0  0  0  0  0  0  0  0  0  0  0
   -9.8822    2.9279   -4.8452 C   0  0  0  0  0  0  0  0  0  0  0  0
  -10.0624    4.2854   -4.2085 C   0  0  0  0  0  0  0  0  0  0  0  0
   -8.6922    3.6804   -4.2923 C   0  0  0  0  0  0  0  0  0  0  0  0
   -8.8198    4.3411   -7.4487 C   0  0  0  0  0  0  0  0  0  0  0  0
   -8.9404    5.3463   -6.7709 O   0  0  0  0  0  0  0  0  0  0  0  0
   -8.1410    4.3750  -15.7684 C   0  0  0  0  0  0  0  0  0  0  0  0
   -8.2034    4.2075  -17.1555 C   0  0  0  0  0  0  0  0  0  0  0  0
   -9.5007    3.7421  -17.7780 C   0  0  0  0  0  0  0  0  0  0  0  0
   -9.5038    2.5360  -18.6810 C   0  0  0  0  0  0  0  0  0  0  0  0
   -9.7501    3.8992  -19.2551 C   0  0  0  0  0  0  0  0  0  0  0  0
   -7.1703    4.5178  -17.9800 N   0  0  0  0  0  0  0  0  0  0  0  0
   -6.0837    5.0279  -17.3780 C   0  0  0  0  0  0  0  0  0  0  0  0
  2  1  1  1
  2  3  1  0
  3  4  1  0
  4  5  1  0
  2  6  1  0
  6  7  1  0
  7  8  2  0
  8  9  1  0
  9 10  2  0
 10 11  1  0
 11 12  2  0
 11 13  1  0
 13 14  1  0
 14 15  2  0
 15 16  1  0
 16 17  2  0
 17 18  1  0
 18 19  2  0
 18 20  1  0
 20 21  2  0
 20 22  1  0
 22 23  1  0
 23 24  1  0
 24 25  1  0
 25 26  1  0
 22 27  1  0
 27 28  2  0
 10 29  1  0
 29 30  2  0
 30 31  1  0
 31 32  1  0
 32 33  1  0
 30 34  1  0
 34 35  2  0
  5  3  1  0
 35  6  1  0
 35  9  1  0
 19 14  1  0
 26 24  1  0
 33 31  1  0
 27 17  1  0
M  END
>  <name>  (116) 
P125962

>  <alias>  (116) 
None

>  <smina_score_min>  (116) 
-9.013

>  <exports>  (116) 
['/opt/xchem-fragalysis-2/maxwin/BulkDock/OUTPUTS/openbind_xx01zvns2b_c2_elabs_1LOUTNY.sdf', '/opt/xchem-fragalysis-2/maxwin/BulkDock/OUTPUTS/openbind_xx01zvns2b_c2_elabs_1LSYIIV.sdf', '/opt/xchem-fragalysis-2/maxwin/openbind-hippo/xx01zvns2b/cycle_02/gnina/openbind_xx01zvns2b_c2_elabs_scored_6.2plus_products.sdf']

>  <tags>  (116) 
syndirella_placed,openbind_xx01zvns2b_c2_elabs,openbind_xx01zvns2b_c2_elabs_scored_6.2plus,syndirella_product,openbind_xx01zvns2b_c2_elabs_scored,openbind_xx01zvns2b_c2_elabs_scored_top80percent,BulkDock Fragalysis export,openbind_xx01zvns2b_c2_elabs_scored_top80percent_despaghettified

>  <subsites>  (116) 
1 - Z4590/B/203/1

>  <smiles>  (116) 
C[C@@H](C1CC1)n1ncc2c(C(=O)Nc3ccc4c(c3)C(=O)N(CC3CC3)C4=O)cc(C3CC3)nc21

>  <HIPPO Pose ID>  (116) 
125962

>  <energy_score>  (116) 
-61.128666

>  <inchikey>  (116) 
VDWUUYPVUVDQCL-AWEZNQCLSA-N

>  <gnina_score_min>  (116) 
6.302

>  <gnina_score>  (116) 
6.521

>  <ref_mols>  (116) 
Z3559a

>  <HIPPO Compound ID>  (116) 
183035

>  <distance_score>  (116) 
0.538969

>  <rmsd(smina/fragmenstein)>  (116) 
0.795

>  <ref_pdb>  (116) 
Z3559a

>  <inspiration_score>  (116) 
None

$$$$
P126966
     RDKit          3D

 28 32  0  0  0  0  0  0  0  0999 V2000
   -9.2894    4.2453   -2.6618 C   0  0  0  0  0  0  0  0  0  0  0  0
   -9.8129    3.7158   -3.9857 C   0  0  0  0  0  0  0  0  0  0  0  0
   -8.7414    3.7247   -5.0643 C   0  0  0  0  0  0  0  0  0  0  0  0
   -9.2560    3.0310   -6.3367 C   0  0  0  0  0  0  0  0  0  0  0  0
   -8.3959    3.3279   -7.4698 N   0  0  0  0  0  0  0  0  0  0  0  0
   -8.2868    4.7591   -7.7809 C   0  0  0  0  0  0  0  0  0  0  0  0
   -8.1710    4.8285   -9.2600 C   0  0  0  0  0  0  0  0  0  0  0  0
   -7.8579    5.9233  -10.0372 C   0  0  0  0  0  0  0  0  0  0  0  0
   -7.7994    5.7421  -11.4139 C   0  0  0  0  0  0  0  0  0  0  0  0
   -8.0670    4.4883  -11.9904 C   0  0  0  0  0  0  0  0  0  0  0  0
   -7.9611    4.3362  -13.3683 N   0  0  0  0  0  0  0  0  0  0  0  0
   -7.4866    5.3286  -14.4545 C   0  0  0  0  0  0  0  0  0  0  0  0
   -7.0377    6.4025  -14.3549 O   0  0  0  0  0  0  0  0  0  0  0  0
   -7.6002    4.7628  -15.8212 C   0  0  0  0  0  0  0  0  0  0  0  0
   -8.7759    4.1187  -16.2540 C   0  0  0  0  0  0  0  0  0  0  0  0
   -8.8981    3.6887  -17.5759 C   0  0  0  0  0  0  0  0  0  0  0  0
   -7.8277    3.9175  -18.4126 C   0  0  0  0  0  0  0  0  0  0  0  0
   -6.6571    4.5791  -18.0124 C   0  0  0  0  0  0  0  0  0  0  0  0
   -6.5368    5.0037  -16.7043 C   0  0  0  0  0  0  0  0  0  0  0  0
   -5.7578    4.6826  -19.2008 C   0  0  0  0  0  0  0  0  0  0  0  0
   -4.2590    4.7525  -19.1229 C   0  0  0  0  0  0  0  0  0  0  0  0
   -5.0431    5.9723  -19.5235 C   0  0  0  0  0  0  0  0  0  0  0  0
   -6.4941    3.9292  -20.2810 C   0  0  0  0  0  0  0  0  0  0  0  0
   -6.0743    3.7182  -21.4085 O   0  0  0  0  0  0  0  0  0  0  0  0
   -7.7109    3.5375  -19.7487 N   0  0  0  0  0  0  0  0  0  0  0  0
   -8.4135    3.3945  -11.1897 C   0  0  0  0  0  0  0  0  0  0  0  0
   -8.4498    3.5819   -9.8168 C   0  0  0  0  0  0  0  0  0  0  0  0
   -8.7830    2.6191   -8.7157 C   0  0  0  0  0  0  0  0  0  0  0  0
  1  2  1  0
  2  3  1  0
  3  4  1  0
  4  5  1  0
  5  6  1  0
  6  7  1  0
  7  8  2  0
  8  9  1  0
  9 10  2  0
 10 11  1  0
 11 12  1  0
 12 13  2  0
 12 14  1  0
 14 15  2  0
 15 16  1  0
 16 17  2  0
 17 18  1  0
 18 19  2  0
 18 20  1  0
 20 21  1  0
 21 22  1  0
 20 23  1  0
 23 24  2  0
 23 25  1  0
 10 26  1  0
 26 27  2  0
 27 28  1  0
 28  5  1  0
 27  7  1  0
 19 14  1  0
 22 20  1  0
 25 17  1  0
M  END
>  <name>  (117) 
P126966

>  <alias>  (117) 
None

>  <smina_score_min>  (117) 
-9.9

>  <exports>  (117) 
['/opt/xchem-fragalysis-2/maxwin/BulkDock/OUTPUTS/openbind_xx01zvns2b_c2_elabs_1LOUTNY.sdf', '/opt/xchem-fragalysis-2/maxwin/BulkDock/OUTPUTS/openbind_xx01zvns2b_c2_elabs_1LSYIIV.sdf', '/opt/xchem-fragalysis-2/maxwin/openbind-hippo/xx01zvns2b/cycle_02/gnina/openbind_xx01zvns2b_c2_elabs_scored_6.2plus_products.sdf']

>  <tags>  (117) 
syndirella_placed,openbind_xx01zvns2b_c2_elabs,openbind_xx01zvns2b_c2_elabs_scored_6.2plus,syndirella_product,openbind_xx01zvns2b_c2_elabs_scored,openbind_xx01zvns2b_c2_elabs_scored_top80percent,BulkDock Fragalysis export,openbind_xx01zvns2b_c2_elabs_scored_top80percent_despaghettified

>  <subsites>  (117) 
1 - Z4590/B/203/1

>  <smiles>  (117) 
CCCCN1Cc2ccc(NC(=O)c3ccc4c(c3)C3(CC3)C(=O)N4)cc2C1

>  <HIPPO Pose ID>  (117) 
126966

>  <energy_score>  (117) 
-36.730993

>  <inchikey>  (117) 
QCRBFKYBGRUZHY-UHFFFAOYSA-N

>  <gnina_score_min>  (117) 
6.263

>  <gnina_score>  (117) 
6.146

>  <ref_mols>  (117) 
Z4756a

>  <HIPPO Compound ID>  (117) 
184418

>  <distance_score>  (117) 
0.40112

>  <rmsd(smina/fragmenstein)>  (117) 
0.584

>  <ref_pdb>  (117) 
Z4756a

>  <inspiration_score>  (117) 
None

$$$$
P126993
     RDKit          3D

 28 32  0  0  0  0  0  0  0  0999 V2000
   -7.0980    6.3874  -14.2304 O   0  0  0  0  0  0  0  0  0  0  0  0
   -7.5263    5.3064  -14.3487 C   0  0  0  0  0  0  0  0  0  0  0  0
   -8.0668    4.3191  -13.2851 N   0  0  0  0  0  0  0  0  0  0  0  0
   -8.1033    4.4167  -11.8943 C   0  0  0  0  0  0  0  0  0  0  0  0
   -7.8249    5.6412  -11.2649 C   0  0  0  0  0  0  0  0  0  0  0  0
   -7.8950    5.7658   -9.8763 C   0  0  0  0  0  0  0  0  0  0  0  0
   -8.2276    4.6468   -9.1370 C   0  0  0  0  0  0  0  0  0  0  0  0
   -8.4895    3.4254   -9.7495 C   0  0  0  0  0  0  0  0  0  0  0  0
   -8.4422    3.2937  -11.1308 C   0  0  0  0  0  0  0  0  0  0  0  0
   -8.8497    2.4148   -8.7034 C   0  0  0  0  0  0  0  0  0  0  0  0
   -8.5790    3.0828   -7.4038 N   0  0  0  0  0  0  0  0  0  0  0  0
   -9.5729    2.7478   -6.3770 C   0  0  0  0  0  0  0  0  0  0  0  0
   -9.3531    3.3945   -5.0028 C   0  0  0  0  0  0  0  0  0  0  0  0
   -9.3581    4.7536   -5.0959 F   0  0  0  0  0  0  0  0  0  0  0  0
  -10.3920    3.0907   -4.1853 F   0  0  0  0  0  0  0  0  0  0  0  0
   -8.4271    4.5257   -7.6637 C   0  0  0  0  0  0  0  0  0  0  0  0
   -7.6225    4.7542  -15.7291 C   0  0  0  0  0  0  0  0  0  0  0  0
   -8.7988    4.1199  -16.1764 C   0  0  0  0  0  0  0  0  0  0  0  0
   -8.9230    3.7030  -17.5029 C   0  0  0  0  0  0  0  0  0  0  0  0
   -7.8516    3.9316  -18.3366 C   0  0  0  0  0  0  0  0  0  0  0  0
   -6.6786    4.5846  -17.9282 C   0  0  0  0  0  0  0  0  0  0  0  0
   -6.5587    4.9997  -16.6126 C   0  0  0  0  0  0  0  0  0  0  0  0
   -5.7795    4.6898  -19.1202 C   0  0  0  0  0  0  0  0  0  0  0  0
   -5.0617    5.9790  -19.4380 C   0  0  0  0  0  0  0  0  0  0  0  0
   -4.2806    4.7553  -19.0430 C   0  0  0  0  0  0  0  0  0  0  0  0
   -6.5188    3.9427  -20.2066 C   0  0  0  0  0  0  0  0  0  0  0  0
   -6.0992    3.7258  -21.3338 O   0  0  0  0  0  0  0  0  0  0  0  0
   -7.7386    3.5594  -19.6759 N   0  0  0  0  0  0  0  0  0  0  0  0
  1  2  2  0
  2  3  1  0
  3  4  1  0
  4  5  2  0
  5  6  1  0
  6  7  2  0
  7  8  1  0
  8  9  2  0
  8 10  1  0
 10 11  1  0
 11 12  1  0
 12 13  1  0
 13 14  1  0
 13 15  1  0
 11 16  1  0
  2 17  1  0
 17 18  2  0
 18 19  1  0
 19 20  2  0
 20 21  1  0
 21 22  2  0
 21 23  1  0
 23 24  1  0
 24 25  1  0
 23 26  1  0
 26 27  2  0
 26 28  1  0
  9  4  1  0
 22 17  1  0
 25 23  1  0
 16  7  1  0
 28 20  1  0
M  END
>  <name>  (118) 
P126993

>  <alias>  (118) 
None

>  <smina_score_min>  (118) 
-10.149

>  <exports>  (118) 
['/opt/xchem-fragalysis-2/maxwin/BulkDock/OUTPUTS/openbind_xx01zvns2b_c2_elabs_1LOUTNY.sdf', '/opt/xchem-fragalysis-2/maxwin/BulkDock/OUTPUTS/openbind_xx01zvns2b_c2_elabs_1LSYIIV.sdf', '/opt/xchem-fragalysis-2/maxwin/openbind-hippo/xx01zvns2b/cycle_02/gnina/openbind_xx01zvns2b_c2_elabs_scored_6.2plus_products.sdf']

>  <tags>  (118) 
syndirella_placed,openbind_xx01zvns2b_c2_elabs,openbind_xx01zvns2b_c2_elabs_scored_6.2plus,syndirella_product,openbind_xx01zvns2b_c2_elabs_scored,openbind_xx01zvns2b_c2_elabs_scored_top80percent,BulkDock Fragalysis export,openbind_xx01zvns2b_c2_elabs_scored_top80percent_despaghettified

>  <subsites>  (118) 
1 - Z4590/B/203/1

>  <smiles>  (118) 
O=C(Nc1ccc2c(c1)CN(CC(F)F)C2)c1ccc2c(c1)C1(CC1)C(=O)N2

>  <HIPPO Pose ID>  (118) 
126993

>  <energy_score>  (118) 
-41.041776

>  <inchikey>  (118) 
VSPGJXOOJXUPRG-UHFFFAOYSA-N

>  <gnina_score_min>  (118) 
6.249

>  <gnina_score>  (118) 
6.146

>  <ref_mols>  (118) 
Z4756a

>  <HIPPO Compound ID>  (118) 
184377

>  <distance_score>  (118) 
0.318918

>  <rmsd(smina/fragmenstein)>  (118) 
0.616

>  <ref_pdb>  (118) 
Z4756a

>  <inspiration_score>  (118) 
None

$$$$
P127034
     RDKit          3D

 29 33  0  0  0  0  0  0  0  0999 V2000
   -7.0429    4.8408   -4.8617 C   0  0  0  0  0  0  0  0  0  0  0  0
   -7.9112    3.7050   -4.3527 C   0  0  0  0  0  0  0  0  0  0  0  0
   -9.2959    3.5906   -4.9965 C   0  0  0  0  0  0  0  0  0  0  0  0
   -9.3719    2.7428   -6.2741 C   0  0  0  0  0  0  0  0  0  0  0  0
   -8.8130    3.2931   -7.4970 N   0  0  0  0  0  0  0  0  0  0  0  0
   -8.7904    2.4649   -8.7069 C   0  0  0  0  0  0  0  0  0  0  0  0
   -8.4610    3.4478   -9.7823 C   0  0  0  0  0  0  0  0  0  0  0  0
   -8.2963    3.2739  -11.1483 C   0  0  0  0  0  0  0  0  0  0  0  0
   -7.9979    4.4012  -11.9290 C   0  0  0  0  0  0  0  0  0  0  0  0
   -7.8476    4.2629  -13.3071 N   0  0  0  0  0  0  0  0  0  0  0  0
   -7.4849    5.3082  -14.3879 C   0  0  0  0  0  0  0  0  0  0  0  0
   -7.1803    6.4309  -14.2833 O   0  0  0  0  0  0  0  0  0  0  0  0
   -7.5833    4.7504  -15.7597 C   0  0  0  0  0  0  0  0  0  0  0  0
   -8.7631    4.1133  -16.1932 C   0  0  0  0  0  0  0  0  0  0  0  0
   -8.8951    3.6954  -17.5181 C   0  0  0  0  0  0  0  0  0  0  0  0
   -7.8288    3.9270  -18.3586 C   0  0  0  0  0  0  0  0  0  0  0  0
   -6.6542    4.5838  -17.9590 C   0  0  0  0  0  0  0  0  0  0  0  0
   -6.5259    5.0014  -16.6465 C   0  0  0  0  0  0  0  0  0  0  0  0
   -5.7623    4.6899  -19.1552 C   0  0  0  0  0  0  0  0  0  0  0  0
   -4.2630    4.7573  -19.0863 C   0  0  0  0  0  0  0  0  0  0  0  0
   -5.0479    5.9795  -19.4784 C   0  0  0  0  0  0  0  0  0  0  0  0
   -6.5060    3.9401  -20.2355 C   0  0  0  0  0  0  0  0  0  0  0  0
   -6.0915    3.7242  -21.3645 O   0  0  0  0  0  0  0  0  0  0  0  0
   -7.7219    3.5534  -19.6980 N   0  0  0  0  0  0  0  0  0  0  0  0
   -7.8673    5.6714  -11.3355 C   0  0  0  0  0  0  0  0  0  0  0  0
   -8.0698    5.8444   -9.9691 C   0  0  0  0  0  0  0  0  0  0  0  0
   -8.3666    4.7192   -9.2294 C   0  0  0  0  0  0  0  0  0  0  0  0
   -8.6931    4.6360   -7.8080 C   0  0  0  0  0  0  0  0  0  0  0  0
   -8.8559    5.6240   -7.1165 O   0  0  0  0  0  0  0  0  0  0  0  0
  1  2  1  0
  2  3  1  0
  3  4  1  0
  4  5  1  0
  5  6  1  0
  6  7  1  0
  7  8  2  0
  8  9  1  0
  9 10  1  0
 10 11  1  0
 11 12  2  0
 11 13  1  0
 13 14  2  0
 14 15  1  0
 15 16  2  0
 16 17  1  0
 17 18  2  0
 17 19  1  0
 19 20  1  0
 20 21  1  0
 19 22  1  0
 22 23  2  0
 22 24  1  0
  9 25  2  0
 25 26  1  0
 26 27  2  0
 27 28  1  0
 28 29  2  0
 28  5  1  0
 27  7  1  0
 18 13  1  0
 21 19  1  0
 24 16  1  0
M  END
>  <name>  (119) 
P127034

>  <alias>  (119) 
None

>  <smina_score_min>  (119) 
-10.079

>  <exports>  (119) 
['/opt/xchem-fragalysis-2/maxwin/BulkDock/OUTPUTS/openbind_xx01zvns2b_c2_elabs_1LOUTNY.sdf', '/opt/xchem-fragalysis-2/maxwin/BulkDock/OUTPUTS/openbind_xx01zvns2b_c2_elabs_1LSYIIV.sdf', '/opt/xchem-fragalysis-2/maxwin/openbind-hippo/xx01zvns2b/cycle_02/gnina/openbind_xx01zvns2b_c2_elabs_scored_6.2plus_products.sdf']

>  <tags>  (119) 
syndirella_placed,openbind_xx01zvns2b_c2_elabs,openbind_xx01zvns2b_c2_elabs_scored_6.2plus,syndirella_product,openbind_xx01zvns2b_c2_elabs_scored,openbind_xx01zvns2b_c2_elabs_scored_top80percent,BulkDock Fragalysis export,openbind_xx01zvns2b_c2_elabs_scored_top80percent_despaghettified

>  <subsites>  (119) 
1 - Z4590/B/203/1

>  <smiles>  (119) 
CCCCN1Cc2cc(NC(=O)c3ccc4c(c3)C3(CC3)C(=O)N4)ccc2C1=O

>  <HIPPO Pose ID>  (119) 
127034

>  <energy_score>  (119) 
-28.205133

>  <inchikey>  (119) 
FZTZJDJWUQEGJU-UHFFFAOYSA-N

>  <gnina_score_min>  (119) 
6.258

>  <gnina_score>  (119) 
6.149

>  <ref_mols>  (119) 
Z4756a

>  <HIPPO Compound ID>  (119) 
184472

>  <distance_score>  (119) 
0.368643

>  <rmsd(smina/fragmenstein)>  (119) 
0.882

>  <ref_pdb>  (119) 
Z4756a

>  <inspiration_score>  (119) 
None

$$$$
P127085
     RDKit          3D

 29 33  0  0  0  0  0  0  0  0999 V2000
   -9.8899    4.6660   -1.5905 C   0  0  0  0  0  0  0  0  0  0  0  0
   -9.1639    4.7806   -2.8054 O   0  0  0  0  0  0  0  0  0  0  0  0
   -9.6121    3.8280   -3.7782 C   0  0  0  0  0  0  0  0  0  0  0  0
   -8.7067    3.9311   -4.9923 C   0  0  0  0  0  0  0  0  0  0  0  0
   -9.2145    3.1129   -6.1939 C   0  0  0  0  0  0  0  0  0  0  0  0
   -8.4133    3.3938   -7.3823 N   0  0  0  0  0  0  0  0  0  0  0  0
   -8.3148    4.8174   -7.7241 C   0  0  0  0  0  0  0  0  0  0  0  0
   -8.1888    4.8522   -9.2039 C   0  0  0  0  0  0  0  0  0  0  0  0
   -7.8607    5.9301   -9.9983 C   0  0  0  0  0  0  0  0  0  0  0  0
   -7.8040    5.7270  -11.3713 C   0  0  0  0  0  0  0  0  0  0  0  0
   -8.0891    4.4689  -11.9303 C   0  0  0  0  0  0  0  0  0  0  0  0
   -7.9879    4.3078  -13.3105 N   0  0  0  0  0  0  0  0  0  0  0  0
   -7.4997    5.2895  -14.4047 C   0  0  0  0  0  0  0  0  0  0  0  0
   -7.0344    6.3580  -14.3111 O   0  0  0  0  0  0  0  0  0  0  0  0
   -7.6173    4.7285  -15.7744 C   0  0  0  0  0  0  0  0  0  0  0  0
   -8.7961    4.0961  -16.2122 C   0  0  0  0  0  0  0  0  0  0  0  0
   -8.9240    3.6808  -17.5392 C   0  0  0  0  0  0  0  0  0  0  0  0
   -7.8551    3.9107  -18.3775 C   0  0  0  0  0  0  0  0  0  0  0  0
   -6.6808    4.5625  -17.9743 C   0  0  0  0  0  0  0  0  0  0  0  0
   -6.5557    4.9731  -16.6612 C   0  0  0  0  0  0  0  0  0  0  0  0
   -5.7845    4.6725  -19.1654 C   0  0  0  0  0  0  0  0  0  0  0  0
   -5.0746    5.9663  -19.4833 C   0  0  0  0  0  0  0  0  0  0  0  0
   -4.2858    4.7465  -19.0925 C   0  0  0  0  0  0  0  0  0  0  0  0
   -6.5242    3.9253  -20.2486 C   0  0  0  0  0  0  0  0  0  0  0  0
   -6.1047    3.7118  -21.3760 O   0  0  0  0  0  0  0  0  0  0  0  0
   -7.7433    3.5399  -19.7170 N   0  0  0  0  0  0  0  0  0  0  0  0
   -8.4496    3.3905  -11.1097 C   0  0  0  0  0  0  0  0  0  0  0  0
   -8.4844    3.5983   -9.7367 C   0  0  0  0  0  0  0  0  0  0  0  0
   -8.8366    2.6664   -8.6074 C   0  0  0  0  0  0  0  0  0  0  0  0
  1  2  1  0
  2  3  1  0
  3  4  1  0
  4  5  1  0
  5  6  1  0
  6  7  1  0
  7  8  1  0
  8  9  2  0
  9 10  1  0
 10 11  2  0
 11 12  1  0
 12 13  1  0
 13 14  2  0
 13 15  1  0
 15 16  2  0
 16 17  1  0
 17 18  2  0
 18 19  1  0
 19 20  2  0
 19 21  1  0
 21 22  1  0
 22 23  1  0
 21 24  1  0
 24 25  2  0
 24 26  1  0
 11 27  1  0
 27 28  2  0
 28 29  1  0
 29  6  1  0
 28  8  1  0
 20 15  1  0
 23 21  1  0
 26 18  1  0
M  END
>  <name>  (120) 
P127085

>  <alias>  (120) 
None

>  <smina_score_min>  (120) 
-9.242

>  <exports>  (120) 
['/opt/xchem-fragalysis-2/maxwin/BulkDock/OUTPUTS/openbind_xx01zvns2b_c2_elabs_1LOUTNY.sdf', '/opt/xchem-fragalysis-2/maxwin/BulkDock/OUTPUTS/openbind_xx01zvns2b_c2_elabs_1LSYIIV.sdf', '/opt/xchem-fragalysis-2/maxwin/openbind-hippo/xx01zvns2b/cycle_02/gnina/openbind_xx01zvns2b_c2_elabs_scored_6.2plus_products.sdf']

>  <tags>  (120) 
syndirella_placed,openbind_xx01zvns2b_c2_elabs,openbind_xx01zvns2b_c2_elabs_scored_6.2plus,syndirella_product,openbind_xx01zvns2b_c2_elabs_scored,openbind_xx01zvns2b_c2_elabs_scored_top80percent,BulkDock Fragalysis export,openbind_xx01zvns2b_c2_elabs_scored_top80percent_despaghettified

>  <subsites>  (120) 
1 - Z4590/B/203/1

>  <smiles>  (120) 
COCCCN1Cc2ccc(NC(=O)c3ccc4c(c3)C3(CC3)C(=O)N4)cc2C1

>  <HIPPO Pose ID>  (120) 
127085

>  <energy_score>  (120) 
-42.84247

>  <inchikey>  (120) 
BWZNEKALSRSAIO-UHFFFAOYSA-N

>  <gnina_score_min>  (120) 
6.203

>  <gnina_score>  (120) 
6.095

>  <ref_mols>  (120) 
Z4756a

>  <HIPPO Compound ID>  (120) 
184432

>  <distance_score>  (120) 
0.40149

>  <rmsd(smina/fragmenstein)>  (120) 
0.483

>  <ref_pdb>  (120) 
Z4756a

>  <inspiration_score>  (120) 
None

$$$$
P127094
     RDKit          3D

 30 34  0  0  0  0  0  0  0  0999 V2000
   -9.2516    2.6899   -6.2153 C   0  0  0  0  0  0  0  0  0  0  0  0
   -8.4126    3.1277   -7.3092 N   0  0  0  0  0  0  0  0  0  0  0  0
   -8.7799    2.5050   -8.5987 C   0  0  0  0  0  0  0  0  0  0  0  0
   -8.5056    3.5471   -9.6346 C   0  0  0  0  0  0  0  0  0  0  0  0
   -8.4838    3.4117  -11.0208 C   0  0  0  0  0  0  0  0  0  0  0  0
   -8.1519    4.5279  -11.7940 C   0  0  0  0  0  0  0  0  0  0  0  0
   -8.0081    4.3926  -13.1777 N   0  0  0  0  0  0  0  0  0  0  0  0
   -7.5406    5.4141  -14.2457 C   0  0  0  0  0  0  0  0  0  0  0  0
   -7.1300    6.5023  -14.1249 O   0  0  0  0  0  0  0  0  0  0  0  0
   -7.5729    4.8537  -15.6315 C   0  0  0  0  0  0  0  0  0  0  0  0
   -8.6862    4.1424  -16.1185 C   0  0  0  0  0  0  0  0  0  0  0  0
   -8.7333    3.7271  -17.4548 C   0  0  0  0  0  0  0  0  0  0  0  0
   -7.6611    4.0448  -18.2645 C   0  0  0  0  0  0  0  0  0  0  0  0
   -6.5641    4.7773  -17.8149 C   0  0  0  0  0  0  0  0  0  0  0  0
   -6.5043    5.1784  -16.4897 C   0  0  0  0  0  0  0  0  0  0  0  0
   -5.6238    5.0555  -18.9782 C   0  0  0  0  0  0  0  0  0  0  0  0
   -4.1600    4.6925  -18.6962 C   0  0  0  0  0  0  0  0  0  0  0  0
   -3.2119    5.5583  -19.5161 C   0  0  0  0  0  0  0  0  0  0  0  0
   -3.3232    6.9444  -19.1897 O   0  0  0  0  0  0  0  0  0  0  0  0
   -4.6264    7.3710  -18.8077 C   0  0  0  0  0  0  0  0  0  0  0  0
   -5.7290    6.5271  -19.4252 C   0  0  0  0  0  0  0  0  0  0  0  0
   -6.2729    4.1599  -20.0855 C   0  0  0  0  0  0  0  0  0  0  0  0
   -5.8344    3.9166  -21.2015 O   0  0  0  0  0  0  0  0  0  0  0  0
   -7.4896    3.6965  -19.5920 N   0  0  0  0  0  0  0  0  0  0  0  0
   -7.9110    5.7614  -11.1676 C   0  0  0  0  0  0  0  0  0  0  0  0
   -7.9509    5.8865   -9.7730 C   0  0  0  0  0  0  0  0  0  0  0  0
   -8.2256    4.7628   -9.0101 C   0  0  0  0  0  0  0  0  0  0  0  0
   -8.1459    4.5701   -7.5089 C   0  0  0  0  0  0  0  0  0  0  0  0
   -6.6929    4.8449   -7.0651 C   0  0  0  0  0  0  0  0  0  0  0  0
   -9.0464    5.5226   -6.7082 C   0  0  0  0  0  0  0  0  0  0  0  0
  1  2  1  0
  2  3  1  0
  3  4  1  0
  4  5  2  0
  5  6  1  0
  6  7  1  0
  7  8  1  0
  8  9  2  0
  8 10  1  0
 10 11  2  0
 11 12  1  0
 12 13  2  0
 13 14  1  0
 14 15  2  0
 14 16  1  0
 16 17  1  0
 17 18  1  0
 18 19  1  0
 19 20  1  0
 20 21  1  0
 16 22  1  0
 22 23  2  0
 22 24  1  0
  6 25  2  0
 25 26  1  0
 26 27  2  0
 27 28  1  0
 28 29  1  0
 28 30  1  0
 28  2  1  0
 27  4  1  0
 15 10  1  0
 21 16  1  0
 24 13  1  0
M  END
>  <name>  (121) 
P127094

>  <alias>  (121) 
None

>  <smina_score_min>  (121) 
-9.934

>  <exports>  (121) 
['/opt/xchem-fragalysis-2/maxwin/BulkDock/OUTPUTS/openbind_xx01zvns2b_c2_elabs_1LOUTNY.sdf', '/opt/xchem-fragalysis-2/maxwin/BulkDock/OUTPUTS/openbind_xx01zvns2b_c2_elabs_1LSYIIV.sdf', '/opt/xchem-fragalysis-2/maxwin/openbind-hippo/xx01zvns2b/cycle_02/gnina/openbind_xx01zvns2b_c2_elabs_scored_6.2plus_products.sdf']

>  <tags>  (121) 
syndirella_placed,openbind_xx01zvns2b_c2_elabs,openbind_xx01zvns2b_c2_elabs_scored_6.2plus,syndirella_product,openbind_xx01zvns2b_c2_elabs_scored,openbind_xx01zvns2b_c1_elabs_filtered,openbind_xx01zvns2b_c2_elabs_scored_top80percent,BulkDock Fragalysis export,openbind_xx01zvns2b_c2_elabs_scored_top80percent_despaghettified

>  <subsites>  (121) 
1 - Z4590/B/203/1

>  <smiles>  (121) 
CN1Cc2cc(NC(=O)c3ccc4c(c3)C3(CCOCC3)C(=O)N4)ccc2C1(C)C

>  <HIPPO Pose ID>  (121) 
127094

>  <energy_score>  (121) 
-50.10489

>  <inchikey>  (121) 
PHSBQOWJNFCZBH-UHFFFAOYSA-N

>  <gnina_score_min>  (121) 
6.234

>  <gnina_score>  (121) 
6.139

>  <ref_mols>  (121) 
Z4756a

>  <HIPPO Compound ID>  (121) 
142812

>  <distance_score>  (121) 
0.405975

>  <rmsd(smina/fragmenstein)>  (121) 
0.348

>  <ref_pdb>  (121) 
Z4756a

>  <inspiration_score>  (121) 
None

$$$$
P127187
     RDKit          3D

 32 36  0  0  0  0  0  0  0  0999 V2000
   -9.7952    4.6325   -1.5825 C   0  0  0  0  0  0  0  0  0  0  0  0
   -9.0195    4.6679   -2.7718 O   0  0  0  0  0  0  0  0  0  0  0  0
   -9.5696    3.8204   -3.7867 C   0  0  0  0  0  0  0  0  0  0  0  0
   -8.6437    3.8624   -4.9884 C   0  0  0  0  0  0  0  0  0  0  0  0
   -9.2043    3.1002   -6.2026 C   0  0  0  0  0  0  0  0  0  0  0  0
   -8.3994    3.3754   -7.3880 N   0  0  0  0  0  0  0  0  0  0  0  0
   -8.2926    4.8024   -7.7181 C   0  0  0  0  0  0  0  0  0  0  0  0
   -8.1889    4.8533   -9.1982 C   0  0  0  0  0  0  0  0  0  0  0  0
   -7.8807    5.9434   -9.9825 C   0  0  0  0  0  0  0  0  0  0  0  0
   -7.8517    5.7594  -11.3582 C   0  0  0  0  0  0  0  0  0  0  0  0
   -8.1366    4.5065  -11.9303 C   0  0  0  0  0  0  0  0  0  0  0  0
   -8.0750    4.3803  -13.3173 N   0  0  0  0  0  0  0  0  0  0  0  0
   -7.5502    5.3614  -14.3937 C   0  0  0  0  0  0  0  0  0  0  0  0
   -7.1589    6.4584  -14.2928 O   0  0  0  0  0  0  0  0  0  0  0  0
   -7.5678    4.7890  -15.7653 C   0  0  0  0  0  0  0  0  0  0  0  0
   -8.6782    4.0798  -16.2606 C   0  0  0  0  0  0  0  0  0  0  0  0
   -8.7111    3.6718  -17.5974 C   0  0  0  0  0  0  0  0  0  0  0  0
   -7.6316    4.0012  -18.3934 C   0  0  0  0  0  0  0  0  0  0  0  0
   -6.5420    4.7371  -17.9319 C   0  0  0  0  0  0  0  0  0  0  0  0
   -6.4928    5.1262  -16.6073 C   0  0  0  0  0  0  0  0  0  0  0  0
   -5.5952    5.0357  -19.0816 C   0  0  0  0  0  0  0  0  0  0  0  0
   -4.1294    4.6894  -18.7855 C   0  0  0  0  0  0  0  0  0  0  0  0
   -3.1850    5.5578  -19.6070 C   0  0  0  0  0  0  0  0  0  0  0  0
   -3.3101    6.9459  -19.2927 O   0  0  0  0  0  0  0  0  0  0  0  0
   -4.6132    7.3581  -18.8944 C   0  0  0  0  0  0  0  0  0  0  0  0
   -5.7125    6.5117  -19.5143 C   0  0  0  0  0  0  0  0  0  0  0  0
   -6.2278    4.1425  -20.1990 C   0  0  0  0  0  0  0  0  0  0  0  0
   -5.7807    3.9154  -21.3147 O   0  0  0  0  0  0  0  0  0  0  0  0
   -7.4434    3.6607  -19.7195 N   0  0  0  0  0  0  0  0  0  0  0  0
   -8.4702    3.4133  -11.1186 C   0  0  0  0  0  0  0  0  0  0  0  0
   -8.4868    3.6049   -9.7424 C   0  0  0  0  0  0  0  0  0  0  0  0
   -8.8274    2.6613   -8.6201 C   0  0  0  0  0  0  0  0  0  0  0  0
  1  2  1  0
  2  3  1  0
  3  4  1  0
  4  5  1  0
  5  6  1  0
  6  7  1  0
  7  8  1  0
  8  9  2  0
  9 10  1  0
 10 11  2  0
 11 12  1  0
 12 13  1  0
 13 14  2  0
 13 15  1  0
 15 16  2  0
 16 17  1  0
 17 18  2  0
 18 19  1  0
 19 20  2  0
 19 21  1  0
 21 22  1  0
 22 23  1  0
 23 24  1  0
 24 25  1  0
 25 26  1  0
 21 27  1  0
 27 28  2  0
 27 29  1  0
 11 30  1  0
 30 31  2  0
 31 32  1  0
 32  6  1  0
 31  8  1  0
 20 15  1  0
 26 21  1  0
 29 18  1  0
M  END
>  <name>  (122) 
P127187

>  <alias>  (122) 
None

>  <smina_score_min>  (122) 
-9.501

>  <exports>  (122) 
['/opt/xchem-fragalysis-2/maxwin/BulkDock/OUTPUTS/openbind_xx01zvns2b_c2_elabs_1LOUTNY.sdf', '/opt/xchem-fragalysis-2/maxwin/BulkDock/OUTPUTS/openbind_xx01zvns2b_c2_elabs_1LSYIIV.sdf', '/opt/xchem-fragalysis-2/maxwin/openbind-hippo/xx01zvns2b/cycle_02/gnina/openbind_xx01zvns2b_c2_elabs_scored_6.2plus_products.sdf']

>  <tags>  (122) 
syndirella_placed,openbind_xx01zvns2b_c2_elabs,openbind_xx01zvns2b_c2_elabs_scored_6.2plus,syndirella_product,openbind_xx01zvns2b_c2_elabs_scored,openbind_xx01zvns2b_c1_elabs_filtered,openbind_xx01zvns2b_c2_elabs_scored_top80percent,BulkDock Fragalysis export,openbind_xx01zvns2b_c2_elabs_scored_top80percent_despaghettified

>  <subsites>  (122) 
1 - Z4590/B/203/1

>  <smiles>  (122) 
COCCCN1Cc2ccc(NC(=O)c3ccc4c(c3)C3(CCOCC3)C(=O)N4)cc2C1

>  <HIPPO Pose ID>  (122) 
127187

>  <energy_score>  (122) 
-49.99663

>  <inchikey>  (122) 
FWMQLMYBMDGDPT-UHFFFAOYSA-N

>  <gnina_score_min>  (122) 
6.425

>  <gnina_score>  (122) 
6.216

>  <ref_mols>  (122) 
Z4756a

>  <HIPPO Compound ID>  (122) 
142814

>  <distance_score>  (122) 
0.447043

>  <rmsd(smina/fragmenstein)>  (122) 
0.752

>  <ref_pdb>  (122) 
Z4756a

>  <inspiration_score>  (122) 
None

$$$$
P127200
     RDKit          3D

 32 36  0  0  0  0  0  0  0  0999 V2000
  -11.9707    2.6527   -4.7494 C   0  0  0  0  0  0  0  0  0  0  0  0
  -10.6948    3.2544   -5.3098 C   0  0  0  0  0  0  0  0  0  0  0  0
   -9.8672    3.8938   -4.1952 C   0  0  0  0  0  0  0  0  0  0  0  0
   -9.9966    2.1157   -6.0485 C   0  0  0  0  0  0  0  0  0  0  0  0
   -8.5583    2.3476   -6.4431 C   0  0  0  0  0  0  0  0  0  0  0  0
   -8.3558    3.0659   -7.6611 N   0  0  0  0  0  0  0  0  0  0  0  0
   -8.3915    4.5052   -7.7737 C   0  0  0  0  0  0  0  0  0  0  0  0
   -8.2768    4.7162   -9.2542 C   0  0  0  0  0  0  0  0  0  0  0  0
   -8.0018    5.8665   -9.9642 C   0  0  0  0  0  0  0  0  0  0  0  0
   -7.9068    5.7687  -11.3561 C   0  0  0  0  0  0  0  0  0  0  0  0
   -8.1162    4.5422  -12.0132 C   0  0  0  0  0  0  0  0  0  0  0  0
   -8.0089    4.4384  -13.3931 N   0  0  0  0  0  0  0  0  0  0  0  0
   -7.5307    5.4631  -14.4399 C   0  0  0  0  0  0  0  0  0  0  0  0
   -7.2238    6.5820  -14.3178 O   0  0  0  0  0  0  0  0  0  0  0  0
   -7.5380    4.8893  -15.8131 C   0  0  0  0  0  0  0  0  0  0  0  0
   -8.6450    4.1615  -16.2988 C   0  0  0  0  0  0  0  0  0  0  0  0
   -8.6712    3.7199  -17.6231 C   0  0  0  0  0  0  0  0  0  0  0  0
   -7.5898    4.0378  -18.4188 C   0  0  0  0  0  0  0  0  0  0  0  0
   -6.5055    4.7910  -17.9686 C   0  0  0  0  0  0  0  0  0  0  0  0
   -6.4613    5.2134  -16.6531 C   0  0  0  0  0  0  0  0  0  0  0  0
   -5.5557    5.0652  -19.1219 C   0  0  0  0  0  0  0  0  0  0  0  0
   -5.6596    6.5348  -19.5795 C   0  0  0  0  0  0  0  0  0  0  0  0
   -4.5468    7.3790  -18.9808 C   0  0  0  0  0  0  0  0  0  0  0  0
   -3.2503    6.9430  -19.3756 O   0  0  0  0  0  0  0  0  0  0  0  0
   -3.1403    5.5463  -19.6558 C   0  0  0  0  0  0  0  0  0  0  0  0
   -4.0947    4.7084  -18.8146 C   0  0  0  0  0  0  0  0  0  0  0  0
   -6.1890    4.1570  -20.2266 C   0  0  0  0  0  0  0  0  0  0  0  0
   -5.7464    3.9216  -21.3424 O   0  0  0  0  0  0  0  0  0  0  0  0
   -7.3978    3.6717  -19.7371 N   0  0  0  0  0  0  0  0  0  0  0  0
   -8.4232    3.3938  -11.2903 C   0  0  0  0  0  0  0  0  0  0  0  0
   -8.4773    3.4979   -9.9149 C   0  0  0  0  0  0  0  0  0  0  0  0
   -8.7141    2.4172   -8.9144 C   0  0  0  0  0  0  0  0  0  0  0  0
  1  2  1  0
  2  3  1  0
  2  4  1  0
  4  5  1  0
  5  6  1  0
  6  7  1  0
  7  8  1  0
  8  9  2  0
  9 10  1  0
 10 11  2  0
 11 12  1  0
 12 13  1  0
 13 14  2  0
 13 15  1  0
 15 16  2  0
 16 17  1  0
 17 18  2  0
 18 19  1  0
 19 20  2  0
 19 21  1  0
 21 22  1  0
 22 23  1  0
 23 24  1  0
 24 25  1  0
 25 26  1  0
 21 27  1  0
 27 28  2  0
 27 29  1  0
 11 30  1  0
 30 31  2  0
 31 32  1  0
 32  6  1  0
 31  8  1  0
 20 15  1  0
 26 21  1  0
 29 18  1  0
M  END
>  <name>  (123) 
P127200

>  <alias>  (123) 
None

>  <smina_score_min>  (123) 
-9.78

>  <exports>  (123) 
['/opt/xchem-fragalysis-2/maxwin/BulkDock/OUTPUTS/openbind_xx01zvns2b_c2_elabs_1LOUTNY.sdf', '/opt/xchem-fragalysis-2/maxwin/BulkDock/OUTPUTS/openbind_xx01zvns2b_c2_elabs_1LSYIIV.sdf', '/opt/xchem-fragalysis-2/maxwin/openbind-hippo/xx01zvns2b/cycle_02/gnina/openbind_xx01zvns2b_c2_elabs_scored_6.2plus_products.sdf']

>  <tags>  (123) 
syndirella_placed,openbind_xx01zvns2b_c2_elabs,openbind_xx01zvns2b_c2_elabs_scored_6.2plus,syndirella_product,openbind_xx01zvns2b_c2_elabs_scored,openbind_xx01zvns2b_c1_elabs_filtered,openbind_xx01zvns2b_c2_elabs_scored_top80percent,BulkDock Fragalysis export,openbind_xx01zvns2b_c2_elabs_scored_top80percent_despaghettified

>  <subsites>  (123) 
1 - Z4590/B/203/1

>  <smiles>  (123) 
CC(C)CCN1Cc2ccc(NC(=O)c3ccc4c(c3)C3(CCOCC3)C(=O)N4)cc2C1

>  <HIPPO Pose ID>  (123) 
127200

>  <energy_score>  (123) 
-47.707421

>  <inchikey>  (123) 
GHZOWFRCUIOQHF-UHFFFAOYSA-N

>  <gnina_score_min>  (123) 
6.307

>  <gnina_score>  (123) 
6.378

>  <ref_mols>  (123) 
Z4756a

>  <HIPPO Compound ID>  (123) 
142816

>  <distance_score>  (123) 
0.424496

>  <rmsd(smina/fragmenstein)>  (123) 
0.379

>  <ref_pdb>  (123) 
Z4756a

>  <inspiration_score>  (123) 
None

$$$$
P127258
     RDKit          3D

 33 37  0  0  0  0  0  0  0  0999 V2000
   -9.3755    7.6392   -3.2881 C   0  0  0  0  0  0  0  0  0  0  0  0
   -9.4995    6.6306   -4.4132 C   0  0  0  0  0  0  0  0  0  0  0  0
  -10.0657    5.4337   -3.8818 O   0  0  0  0  0  0  0  0  0  0  0  0
  -10.2515    4.4222   -4.8818 C   0  0  0  0  0  0  0  0  0  0  0  0
   -8.9811    3.5935   -5.0237 C   0  0  0  0  0  0  0  0  0  0  0  0
   -8.9983    2.6455   -6.2322 C   0  0  0  0  0  0  0  0  0  0  0  0
   -9.0951    3.3599   -7.4985 N   0  0  0  0  0  0  0  0  0  0  0  0
   -8.1531    4.4709   -7.6815 C   0  0  0  0  0  0  0  0  0  0  0  0
   -8.0813    4.6345   -9.1596 C   0  0  0  0  0  0  0  0  0  0  0  0
   -7.6461    5.7203   -9.8885 C   0  0  0  0  0  0  0  0  0  0  0  0
   -7.6580    5.6144  -11.2760 C   0  0  0  0  0  0  0  0  0  0  0  0
   -8.0798    4.4321  -11.9099 C   0  0  0  0  0  0  0  0  0  0  0  0
   -8.0460    4.3528  -13.3005 N   0  0  0  0  0  0  0  0  0  0  0  0
   -7.4813    5.3406  -14.3505 C   0  0  0  0  0  0  0  0  0  0  0  0
   -7.0261    6.4091  -14.2176 O   0  0  0  0  0  0  0  0  0  0  0  0
   -7.5365    4.7983  -15.7356 C   0  0  0  0  0  0  0  0  0  0  0  0
   -8.6649    4.1069  -16.2198 C   0  0  0  0  0  0  0  0  0  0  0  0
   -8.7229    3.7013  -17.5556 C   0  0  0  0  0  0  0  0  0  0  0  0
   -7.6510    4.0190  -18.3644 C   0  0  0  0  0  0  0  0  0  0  0  0
   -6.5437    4.7374  -17.9155 C   0  0  0  0  0  0  0  0  0  0  0  0
   -6.4680    5.1220  -16.5909 C   0  0  0  0  0  0  0  0  0  0  0  0
   -5.6223    5.0479  -19.0819 C   0  0  0  0  0  0  0  0  0  0  0  0
   -4.1458    4.7222  -18.8478 C   0  0  0  0  0  0  0  0  0  0  0  0
   -3.2545    5.2441  -19.9722 C   0  0  0  0  0  0  0  0  0  0  0  0
   -3.4591    6.6427  -20.1754 O   0  0  0  0  0  0  0  0  0  0  0  0
   -4.8028    6.9333  -20.5489 C   0  0  0  0  0  0  0  0  0  0  0  0
   -5.7429    6.5436  -19.4201 C   0  0  0  0  0  0  0  0  0  0  0  0
   -6.2830    4.1629  -20.1936 C   0  0  0  0  0  0  0  0  0  0  0  0
   -5.8580    3.9257  -21.3158 O   0  0  0  0  0  0  0  0  0  0  0  0
   -7.4926    3.6887  -19.6961 N   0  0  0  0  0  0  0  0  0  0  0  0
   -8.5216    3.3393  -11.1544 C   0  0  0  0  0  0  0  0  0  0  0  0
   -8.5307    3.4642   -9.7737 C   0  0  0  0  0  0  0  0  0  0  0  0
   -8.9704    2.5013   -8.7047 C   0  0  0  0  0  0  0  0  0  0  0  0
  1  2  1  0
  2  3  1  0
  3  4  1  0
  4  5  1  0
  5  6  1  0
  6  7  1  0
  7  8  1  0
  8  9  1  0
  9 10  2  0
 10 11  1  0
 11 12  2  0
 12 13  1  0
 13 14  1  0
 14 15  2  0
 14 16  1  0
 16 17  2  0
 17 18  1  0
 18 19  2  0
 19 20  1  0
 20 21  2  0
 20 22  1  0
 22 23  1  0
 23 24  1  0
 24 25  1  0
 25 26  1  0
 26 27  1  0
 22 28  1  0
 28 29  2  0
 28 30  1  0
 12 31  1  0
 31 32  2  0
 32 33  1  0
 33  7  1  0
 32  9  1  0
 21 16  1  0
 27 22  1  0
 30 19  1  0
M  END
>  <name>  (124) 
P127258

>  <alias>  (124) 
None

>  <smina_score_min>  (124) 
-9.319

>  <exports>  (124) 
['/opt/xchem-fragalysis-2/maxwin/BulkDock/OUTPUTS/openbind_xx01zvns2b_c2_elabs_1LOUTNY.sdf', '/opt/xchem-fragalysis-2/maxwin/BulkDock/OUTPUTS/openbind_xx01zvns2b_c2_elabs_1LSYIIV.sdf', '/opt/xchem-fragalysis-2/maxwin/openbind-hippo/xx01zvns2b/cycle_02/gnina/openbind_xx01zvns2b_c2_elabs_scored_6.2plus_products.sdf']

>  <tags>  (124) 
syndirella_placed,openbind_xx01zvns2b_c2_elabs,openbind_xx01zvns2b_c2_elabs_scored_6.2plus,syndirella_product,openbind_xx01zvns2b_c2_elabs_scored,openbind_xx01zvns2b_c1_elabs_filtered,openbind_xx01zvns2b_c2_elabs_scored_top80percent,BulkDock Fragalysis export,openbind_xx01zvns2b_c2_elabs_scored_top80percent_despaghettified

>  <subsites>  (124) 
1 - Z4590/B/203/1

>  <smiles>  (124) 
CCOCCCN1Cc2ccc(NC(=O)c3ccc4c(c3)C3(CCOCC3)C(=O)N4)cc2C1

>  <HIPPO Pose ID>  (124) 
127258

>  <energy_score>  (124) 
-52.282527

>  <inchikey>  (124) 
IUXQLRHBJVLCPP-UHFFFAOYSA-N

>  <gnina_score_min>  (124) 
6.439

>  <gnina_score>  (124) 
6.306

>  <ref_mols>  (124) 
Z4756a

>  <HIPPO Compound ID>  (124) 
142818

>  <distance_score>  (124) 
0.421214

>  <rmsd(smina/fragmenstein)>  (124) 
0.475

>  <ref_pdb>  (124) 
Z4756a

>  <inspiration_score>  (124) 
None

$$$$
P127281
     RDKit          3D

 33 38  0  0  0  0  0  0  0  0999 V2000
   -7.2495    6.3936  -14.3123 O   0  0  0  0  0  0  0  0  0  0  0  0
   -7.6057    5.2858  -14.4172 C   0  0  0  0  0  0  0  0  0  0  0  0
   -8.1020    4.2862  -13.3452 N   0  0  0  0  0  0  0  0  0  0  0  0
   -8.1709    4.4063  -11.9605 C   0  0  0  0  0  0  0  0  0  0  0  0
   -7.9333    5.6571  -11.3573 C   0  0  0  0  0  0  0  0  0  0  0  0
   -8.0292    5.8148   -9.9775 C   0  0  0  0  0  0  0  0  0  0  0  0
   -8.3351    4.6924   -9.2385 C   0  0  0  0  0  0  0  0  0  0  0  0
   -8.5443    3.4384   -9.8055 C   0  0  0  0  0  0  0  0  0  0  0  0
   -8.4866    3.2839  -11.1817 C   0  0  0  0  0  0  0  0  0  0  0  0
   -8.8094    2.4370   -8.7263 C   0  0  0  0  0  0  0  0  0  0  0  0
   -8.6450    3.2401   -7.5121 N   0  0  0  0  0  0  0  0  0  0  0  0
   -8.6941    2.6177   -6.1870 C   0  0  1  0  0  0  0  0  0  0  0  0
   -7.9789    3.4217   -5.0907 C   0  0  0  0  0  0  0  0  0  0  0  0
   -8.8492    4.4117   -4.3291 C   0  0  2  0  0  0  0  0  0  0  0  0
   -8.7254    4.1311   -2.9921 F   0  0  0  0  0  0  0  0  0  0  0  0
  -10.3264    4.3722   -4.6901 C   0  0  0  0  0  0  0  0  0  0  0  0
  -10.8098    3.0507   -4.9926 N   0  0  0  0  0  0  0  0  0  0  0  0
  -10.1246    2.2158   -5.8288 C   0  0  0  0  0  0  0  0  0  0  0  0
  -10.6868    1.2493   -6.3360 O   0  0  0  0  0  0  0  0  0  0  0  0
   -8.4628    4.5767   -7.7888 C   0  0  0  0  0  0  0  0  0  0  0  0
   -8.3858    5.5197   -7.0230 O   0  0  0  0  0  0  0  0  0  0  0  0
   -7.6686    4.7225  -15.7907 C   0  0  0  0  0  0  0  0  0  0  0  0
   -8.8325    4.0810  -16.2573 C   0  0  0  0  0  0  0  0  0  0  0  0
   -8.9292    3.6651  -17.5853 C   0  0  0  0  0  0  0  0  0  0  0  0
   -7.8453    3.9063  -18.3990 C   0  0  0  0  0  0  0  0  0  0  0  0
   -6.6841    4.5668  -17.9697 C   0  0  0  0  0  0  0  0  0  0  0  0
   -6.5900    4.9786  -16.6523 C   0  0  0  0  0  0  0  0  0  0  0  0
   -5.7674    4.6857  -19.1461 C   0  0  0  0  0  0  0  0  0  0  0  0
   -4.2700    4.7553  -19.0446 C   0  0  0  0  0  0  0  0  0  0  0  0
   -5.0490    5.9792  -19.4433 C   0  0  0  0  0  0  0  0  0  0  0  0
   -6.4858    3.9429  -20.2487 C   0  0  0  0  0  0  0  0  0  0  0  0
   -6.0499    3.7431  -21.3726 O   0  0  0  0  0  0  0  0  0  0  0  0
   -7.7083    3.5423  -19.7377 N   0  0  0  0  0  0  0  0  0  0  0  0
  1  2  2  0
  2  3  1  0
  3  4  1  0
  4  5  2  0
  5  6  1  0
  6  7  2  0
  7  8  1  0
  8  9  2  0
  8 10  1  0
 10 11  1  0
 12 11  1  6
 12 13  1  0
 13 14  1  0
 14 15  1  1
 14 16  1  0
 16 17  1  0
 17 18  1  0
 18 19  2  0
 11 20  1  0
 20 21  2  0
  2 22  1  0
 22 23  2  0
 23 24  1  0
 24 25  2  0
 25 26  1  0
 26 27  2  0
 26 28  1  0
 28 29  1  0
 29 30  1  0
 28 31  1  0
 31 32  2  0
 31 33  1  0
  9  4  1  0
 18 12  1  0
 27 22  1  0
 30 28  1  0
 20  7  1  0
 33 25  1  0
M  END
>  <name>  (125) 
P127281

>  <alias>  (125) 
None

>  <smina_score_min>  (125) 
-11.254

>  <exports>  (125) 
['/opt/xchem-fragalysis-2/maxwin/BulkDock/OUTPUTS/openbind_xx01zvns2b_c2_elabs_1LOUTNY.sdf', '/opt/xchem-fragalysis-2/maxwin/BulkDock/OUTPUTS/openbind_xx01zvns2b_c2_elabs_1LSYIIV.sdf', '/opt/xchem-fragalysis-2/maxwin/openbind-hippo/xx01zvns2b/cycle_02/gnina/openbind_xx01zvns2b_c2_elabs_scored_6.2plus_products.sdf']

>  <tags>  (125) 
syndirella_placed,openbind_xx01zvns2b_c2_elabs,openbind_xx01zvns2b_c2_elabs_scored_6.2plus,syndirella_product,openbind_xx01zvns2b_c2_elabs_scored,openbind_xx01zvns2b_c2_elabs_scored_top80percent,BulkDock Fragalysis export,openbind_xx01zvns2b_c2_elabs_scored_top80percent_despaghettified

>  <subsites>  (125) 
1 - Z4590/B/203/1

>  <smiles>  (125) 
O=C(Nc1ccc2c(c1)CN([C@H]1C[C@H](F)CNC1=O)C2=O)c1ccc2c(c1)C1(CC1)C(=O)N2

>  <HIPPO Pose ID>  (125) 
127281

>  <energy_score>  (125) 
-49.477421

>  <inchikey>  (125) 
PDWOPHPZRFEOMT-LIRRHRJNSA-N

>  <gnina_score_min>  (125) 
6.207

>  <gnina_score>  (125) 
6.209

>  <ref_mols>  (125) 
Z4756a

>  <HIPPO Compound ID>  (125) 
189321

>  <distance_score>  (125) 
0.304579

>  <rmsd(smina/fragmenstein)>  (125) 
0.525

>  <ref_pdb>  (125) 
Z4756a

>  <inspiration_score>  (125) 
None

$$$$
P128342
     RDKit          3D

 34 39  0  0  0  0  0  0  0  0999 V2000
   -7.4470    5.1960   -2.9918 C   0  0  0  0  0  0  0  0  0  0  0  0
   -8.3086    4.6240   -4.0076 N   0  0  0  0  0  0  0  0  0  0  0  0
   -9.4503    5.3487   -4.3150 C   0  0  0  0  0  0  0  0  0  0  0  0
   -9.7699    6.3922   -3.7408 O   0  0  0  0  0  0  0  0  0  0  0  0
  -10.2914    4.8300   -5.4475 C   0  0  0  0  0  0  0  0  0  0  0  0
  -10.1390    3.3377   -5.6128 C   0  0  0  0  0  0  0  0  0  0  0  0
   -8.6875    3.0225   -5.9248 C   0  0  1  0  0  0  0  0  0  0  0  0
   -8.3340    3.3912   -7.2833 N   0  0  0  0  0  0  0  0  0  0  0  0
   -8.6760    2.5584   -8.4456 C   0  0  0  0  0  0  0  0  0  0  0  0
   -8.3630    3.4763   -9.5855 C   0  0  0  0  0  0  0  0  0  0  0  0
   -8.4013    3.2810  -10.9573 C   0  0  0  0  0  0  0  0  0  0  0  0
   -8.0355    4.3612  -11.7747 C   0  0  0  0  0  0  0  0  0  0  0  0
   -7.9591    4.2237  -13.1545 N   0  0  0  0  0  0  0  0  0  0  0  0
   -7.4525    5.2056  -14.2342 C   0  0  0  0  0  0  0  0  0  0  0  0
   -6.9483    6.2546  -14.1275 O   0  0  0  0  0  0  0  0  0  0  0  0
   -7.6122    4.6858  -15.6084 C   0  0  0  0  0  0  0  0  0  0  0  0
   -8.7964    4.0976  -16.0654 C   0  0  0  0  0  0  0  0  0  0  0  0
   -8.9604    3.8102  -17.4203 C   0  0  0  0  0  0  0  0  0  0  0  0
   -7.9511    4.1061  -18.3479 C   0  0  0  0  0  0  0  0  0  0  0  0
   -6.7463    4.6808  -17.9057 C   0  0  0  0  0  0  0  0  0  0  0  0
   -5.5624    5.1281  -18.5140 C   0  0  0  0  0  0  0  0  0  0  0  0
   -4.7151    5.5653  -17.5365 C   0  0  0  0  0  0  0  0  0  0  0  0
   -5.3288    5.4930  -16.3377 N   0  0  0  0  0  0  0  0  0  0  0  0
   -6.5913    4.9432  -16.5368 C   0  0  0  0  0  0  0  0  0  0  0  0
   -3.3929    6.0111  -18.0019 C   0  0  0  0  0  0  0  0  0  0  0  0
   -3.4350    5.4872  -19.4787 C   0  0  0  0  0  0  0  0  0  0  0  0
   -4.9453    5.2631  -19.8485 C   0  0  0  0  0  0  0  0  0  0  0  0
   -7.6908    5.6117  -11.2200 C   0  0  0  0  0  0  0  0  0  0  0  0
   -7.6627    5.8056   -9.8519 C   0  0  0  0  0  0  0  0  0  0  0  0
   -7.9798    4.7183   -9.0787 C   0  0  0  0  0  0  0  0  0  0  0  0
   -7.9735    4.6686   -7.6321 C   0  0  0  0  0  0  0  0  0  0  0  0
   -7.7164    5.6158   -6.9128 O   0  0  0  0  0  0  0  0  0  0  0  0
   -7.7425    3.6632   -4.8552 C   0  0  0  0  0  0  0  0  0  0  0  0
   -6.5278    3.4364   -4.7998 O   0  0  0  0  0  0  0  0  0  0  0  0
  1  2  1  0
  2  3  1  0
  3  4  2  0
  3  5  1  0
  5  6  1  0
  6  7  1  0
  7  8  1  6
  8  9  1  0
  9 10  1  0
 10 11  2  0
 11 12  1  0
 12 13  1  0
 13 14  1  0
 14 15  2  0
 14 16  1  0
 16 17  2  0
 17 18  1  0
 18 19  2  0
 19 20  1  0
 20 21  1  0
 21 22  2  0
 22 23  1  0
 23 24  1  0
 22 25  1  0
 25 26  1  0
 26 27  1  0
 12 28  2  0
 28 29  1  0
 29 30  2  0
 30 31  1  0
 31 32  2  0
  7 33  1  0
 33 34  2  0
 33  2  1  0
 31  8  1  0
 30 10  1  0
 24 16  1  0
 24 20  2  0
 27 21  1  0
M  END
>  <name>  (126) 
P128342

>  <alias>  (126) 
None

>  <smina_score_min>  (126) 
-10.762

>  <exports>  (126) 
['/opt/xchem-fragalysis-2/maxwin/BulkDock/OUTPUTS/openbind_xx01zvns2b_c2_elabs_1LOUTNY.sdf', '/opt/xchem-fragalysis-2/maxwin/BulkDock/OUTPUTS/openbind_xx01zvns2b_c2_elabs_1LSYIIV.sdf', '/opt/xchem-fragalysis-2/maxwin/openbind-hippo/xx01zvns2b/cycle_02/gnina/openbind_xx01zvns2b_c2_elabs_scored_6.2plus_products.sdf']

>  <tags>  (126) 
syndirella_placed,openbind_xx01zvns2b_c2_elabs,openbind_xx01zvns2b_c2_elabs_scored_6.2plus,syndirella_product,openbind_xx01zvns2b_c2_elabs_scored,openbind_xx01zvns2b_c2_elabs_scored_top80percent,BulkDock Fragalysis export,openbind_xx01zvns2b_c2_elabs_scored_top80percent_despaghettified

>  <subsites>  (126) 
1 - Z4590/B/203/1

>  <smiles>  (126) 
CN1C(=O)CC[C@@H](N2Cc3cc(NC(=O)c4cccc5c6c([nH]c45)CCC6)ccc3C2=O)C1=O

>  <HIPPO Pose ID>  (126) 
128342

>  <energy_score>  (126) 
-20.262222

>  <inchikey>  (126) 
UZDFSRYZQYAPED-OAQYLSRUSA-N

>  <gnina_score_min>  (126) 
6.233

>  <gnina_score>  (126) 
6.116

>  <ref_mols>  (126) 
Z3792a

>  <HIPPO Compound ID>  (126) 
183018

>  <distance_score>  (126) 
0.738328

>  <rmsd(smina/fragmenstein)>  (126) 
0.434

>  <ref_pdb>  (126) 
Z3792a

>  <inspiration_score>  (126) 
None

$$$$
P134363
     RDKit          3D

 27 30  0  0  0  0  0  0  0  0999 V2000
   -2.8559    5.7356  -17.3448 C   0  0  0  0  0  0  0  0  0  0  0  0
   -4.2961    5.4820  -17.1272 C   0  0  0  0  0  0  0  0  0  0  0  0
   -4.9383    5.5528  -15.9806 N   0  0  0  0  0  0  0  0  0  0  0  0
   -6.2444    5.2173  -16.2566 C   0  0  0  0  0  0  0  0  0  0  0  0
   -7.3776    5.1147  -15.4345 C   0  0  0  0  0  0  0  0  0  0  0  0
   -7.3224    5.5428  -14.0280 C   0  0  0  0  0  0  0  0  0  0  0  0
   -7.1102    6.6664  -13.7892 O   0  0  0  0  0  0  0  0  0  0  0  0
   -7.6633    4.3640  -13.0851 N   0  0  0  0  0  0  0  0  0  0  0  0
   -7.8988    4.3424  -11.7124 C   0  0  0  0  0  0  0  0  0  0  0  0
   -7.7179    5.4965  -10.9305 C   0  0  0  0  0  0  0  0  0  0  0  0
   -7.9656    5.4810   -9.5553 C   0  0  0  0  0  0  0  0  0  0  0  0
   -8.4060    4.3012   -8.9920 C   0  0  0  0  0  0  0  0  0  0  0  0
   -8.5874    3.1520   -9.7653 C   0  0  0  0  0  0  0  0  0  0  0  0
   -8.3288    3.1502  -11.1240 C   0  0  0  0  0  0  0  0  0  0  0  0
   -9.0784    2.0481   -8.8816 C   0  0  0  0  0  0  0  0  0  0  0  0
   -9.5775    2.7716   -7.6992 N   0  0  0  0  0  0  0  0  0  0  0  0
   -9.6478    1.9523   -6.4925 C   0  0  0  0  0  0  0  0  0  0  0  0
  -10.2071    2.6807   -5.2639 C   0  0  0  0  0  0  0  0  0  0  0  0
   -9.2896    3.5505   -4.7547 F   0  0  0  0  0  0  0  0  0  0  0  0
  -11.2890    3.4345   -5.5943 F   0  0  0  0  0  0  0  0  0  0  0  0
   -8.7685    3.9932   -7.5742 C   0  0  0  0  0  0  0  0  0  0  0  0
   -8.6039    4.7133  -15.9829 C   0  0  0  0  0  0  0  0  0  0  0  0
   -8.7009    4.4524  -17.3464 C   0  0  0  0  0  0  0  0  0  0  0  0
  -10.2318    4.0786  -18.0219 Cl  0  0  0  0  0  0  0  0  0  0  0  0
   -7.5975    4.5514  -18.1945 C   0  0  0  0  0  0  0  0  0  0  0  0
   -6.3900    4.9356  -17.6117 C   0  0  0  0  0  0  0  0  0  0  0  0
   -5.1448    5.1338  -18.1478 N   0  0  0  0  0  0  0  0  0  0  0  0
  1  2  1  0
  2  3  2  0
  3  4  1  0
  4  5  2  0
  5  6  1  0
  6  7  2  0
  6  8  1  0
  8  9  1  0
  9 10  2  0
 10 11  1  0
 11 12  2  0
 12 13  1  0
 13 14  2  0
 13 15  1  0
 15 16  1  0
 16 17  1  0
 17 18  1  0
 18 19  1  0
 18 20  1  0
 16 21  1  0
  5 22  1  0
 22 23  2  0
 23 24  1  0
 23 25  1  0
 25 26  2  0
 26 27  1  0
 27  2  1  0
 26  4  1  0
 14  9  1  0
 21 12  1  0
M  END
>  <name>  (127) 
P134363

>  <alias>  (127) 
None

>  <smina_score_min>  (127) 
-8.923

>  <exports>  (127) 
['/opt/xchem-fragalysis-2/maxwin/BulkDock/OUTPUTS/openbind_xx01zvns2b_c2_elabs_1LOUTNY.sdf', '/opt/xchem-fragalysis-2/maxwin/BulkDock/OUTPUTS/openbind_xx01zvns2b_c2_elabs_1LSYIIV.sdf', '/opt/xchem-fragalysis-2/maxwin/openbind-hippo/xx01zvns2b/cycle_02/gnina/openbind_xx01zvns2b_c2_elabs_scored_6.2plus_products.sdf']

>  <tags>  (127) 
syndirella_placed,openbind_xx01zvns2b_c2_elabs,openbind_xx01zvns2b_c2_elabs_scored_6.2plus,syndirella_product,openbind_xx01zvns2b_c2_elabs_scored,openbind_xx01zvns2b_c1_elabs_filtered,openbind_xx01zvns2b_c2_elabs_scored_top80percent,BulkDock Fragalysis export,openbind_xx01zvns2b_c2_elabs_scored_top80percent_despaghettified

>  <subsites>  (127) 
1 - Z4590/B/203/1

>  <smiles>  (127) 
Cc1nc2c(C(=O)Nc3ccc4c(c3)CN(CC(F)F)C4)cc(Cl)cc2[nH]1

>  <HIPPO Pose ID>  (127) 
134363

>  <energy_score>  (127) 
-24.503637

>  <inchikey>  (127) 
CCMPVUAVUMLJQF-UHFFFAOYSA-N

>  <gnina_score_min>  (127) 
6.208

>  <gnina_score>  (127) 
6.082

>  <ref_mols>  (127) 
Z3502a

>  <HIPPO Compound ID>  (127) 
190900

>  <distance_score>  (127) 
0.532329

>  <rmsd(smina/fragmenstein)>  (127) 
0.461

>  <ref_pdb>  (127) 
Z3502a

>  <inspiration_score>  (127) 
None

$$$$
P134365
     RDKit          3D

 28 31  0  0  0  0  0  0  0  0999 V2000
   -2.8808    5.7217  -17.3917 C   0  0  0  0  0  0  0  0  0  0  0  0
   -4.3241    5.4670  -17.1967 C   0  0  0  0  0  0  0  0  0  0  0  0
   -4.9902    5.5835  -16.0687 N   0  0  0  0  0  0  0  0  0  0  0  0
   -6.2859    5.2220  -16.3571 C   0  0  0  0  0  0  0  0  0  0  0  0
   -7.4382    5.1653  -15.5620 C   0  0  0  0  0  0  0  0  0  0  0  0
   -7.4589    5.7920  -14.2415 C   0  0  0  0  0  0  0  0  0  0  0  0
   -7.2602    6.9411  -14.1817 O   0  0  0  0  0  0  0  0  0  0  0  0
   -7.8537    4.7851  -13.1381 N   0  0  0  0  0  0  0  0  0  0  0  0
   -7.9886    4.9568  -11.7681 C   0  0  0  0  0  0  0  0  0  0  0  0
   -7.8595    6.2532  -11.2345 C   0  0  0  0  0  0  0  0  0  0  0  0
   -7.9748    6.4922   -9.8725 C   0  0  0  0  0  0  0  0  0  0  0  0
   -8.1903    5.4076   -9.0615 C   0  0  0  0  0  0  0  0  0  0  0  0
   -8.3234    4.1134   -9.5808 C   0  0  0  0  0  0  0  0  0  0  0  0
   -8.2509    3.8643  -10.9404 C   0  0  0  0  0  0  0  0  0  0  0  0
   -8.5655    3.1843   -8.4334 C   0  0  0  0  0  0  0  0  0  0  0  0
   -8.1050    3.9720   -7.2821 N   0  0  0  0  0  0  0  0  0  0  0  0
   -8.3522    3.5591   -5.9301 C   0  0  0  0  0  0  0  0  0  0  0  0
   -9.7794    3.5309   -5.4292 C   0  0  0  0  0  0  0  0  0  0  0  0
  -10.7366    2.5034   -6.0488 C   0  0  0  0  0  0  0  0  0  0  0  0
  -11.7034    2.0972   -4.9677 C   0  0  0  0  0  0  0  0  0  0  0  0
  -10.1437    1.2267   -6.6392 C   0  0  0  0  0  0  0  0  0  0  0  0
   -8.2962    5.3779   -7.5767 C   0  0  0  0  0  0  0  0  0  0  0  0
   -8.6502    4.7276  -16.1045 C   0  0  0  0  0  0  0  0  0  0  0  0
   -8.7215    4.4083  -17.4533 C   0  0  0  0  0  0  0  0  0  0  0  0
  -10.2517    4.0427  -18.1257 Cl  0  0  0  0  0  0  0  0  0  0  0  0
   -7.6031    4.4698  -18.2862 C   0  0  0  0  0  0  0  0  0  0  0  0
   -6.4045    4.8784  -17.6992 C   0  0  0  0  0  0  0  0  0  0  0  0
   -5.1524    5.0745  -18.2183 N   0  0  0  0  0  0  0  0  0  0  0  0
  1  2  1  0
  2  3  2  0
  3  4  1  0
  4  5  2  0
  5  6  1  0
  6  7  2  0
  6  8  1  0
  8  9  1  0
  9 10  2  0
 10 11  1  0
 11 12  2  0
 12 13  1  0
 13 14  2  0
 13 15  1  0
 15 16  1  0
 16 17  1  0
 17 18  1  0
 18 19  1  0
 19 20  1  0
 19 21  1  0
 16 22  1  0
  5 23  1  0
 23 24  2  0
 24 25  1  0
 24 26  1  0
 26 27  2  0
 27 28  1  0
 28  2  1  0
 27  4  1  0
 14  9  1  0
 22 12  1  0
M  END
>  <name>  (128) 
P134365

>  <alias>  (128) 
None

>  <smina_score_min>  (128) 
-7.993

>  <exports>  (128) 
['/opt/xchem-fragalysis-2/maxwin/BulkDock/OUTPUTS/openbind_xx01zvns2b_c2_elabs_1LOUTNY.sdf', '/opt/xchem-fragalysis-2/maxwin/BulkDock/OUTPUTS/openbind_xx01zvns2b_c2_elabs_1LSYIIV.sdf', '/opt/xchem-fragalysis-2/maxwin/openbind-hippo/xx01zvns2b/cycle_02/gnina/openbind_xx01zvns2b_c2_elabs_scored_6.2plus_products.sdf']

>  <tags>  (128) 
syndirella_placed,openbind_xx01zvns2b_c2_elabs,openbind_xx01zvns2b_c2_elabs_scored_6.2plus,syndirella_product,openbind_xx01zvns2b_c2_elabs_scored,openbind_xx01zvns2b_c1_elabs_filtered,openbind_xx01zvns2b_c2_elabs_scored_top80percent,BulkDock Fragalysis export,openbind_xx01zvns2b_c2_elabs_scored_top80percent_despaghettified

>  <subsites>  (128) 
1 - Z4590/B/203/1

>  <smiles>  (128) 
Cc1nc2c(C(=O)Nc3ccc4c(c3)CN(CCC(C)C)C4)cc(Cl)cc2[nH]1

>  <HIPPO Pose ID>  (128) 
134365

>  <energy_score>  (128) 
-6.756657

>  <inchikey>  (128) 
QGUJBSDLGICARP-UHFFFAOYSA-N

>  <gnina_score_min>  (128) 
6.258

>  <gnina_score>  (128) 
6.04

>  <ref_mols>  (128) 
Z3502a

>  <HIPPO Compound ID>  (128) 
190902

>  <distance_score>  (128) 
1.025294

>  <rmsd(smina/fragmenstein)>  (128) 
0.679

>  <ref_pdb>  (128) 
Z3502a

>  <inspiration_score>  (128) 
None

$$$$
P134366
     RDKit          3D

 28 31  0  0  0  0  0  0  0  0999 V2000
  -11.6547    2.3299   -5.8839 C   0  0  0  0  0  0  0  0  0  0  0  0
  -10.8137    2.6957   -4.7052 C   0  0  0  0  0  0  0  0  0  0  0  0
   -9.5953    3.5292   -5.0157 C   0  0  0  0  0  0  0  0  0  0  0  0
   -8.6885    2.8554   -6.0359 C   0  0  0  0  0  0  0  0  0  0  0  0
   -8.8419    3.4111   -7.3568 N   0  0  0  0  0  0  0  0  0  0  0  0
   -8.8812    2.5813   -8.5662 C   0  0  0  0  0  0  0  0  0  0  0  0
   -8.5541    3.5750   -9.6389 C   0  0  0  0  0  0  0  0  0  0  0  0
   -8.4528    3.4391  -11.0160 C   0  0  0  0  0  0  0  0  0  0  0  0
   -8.0835    4.5737  -11.7589 C   0  0  0  0  0  0  0  0  0  0  0  0
   -7.9436    4.5065  -13.1414 N   0  0  0  0  0  0  0  0  0  0  0  0
   -7.4072    5.5538  -14.1509 C   0  0  0  0  0  0  0  0  0  0  0  0
   -7.0723    6.6616  -13.9870 O   0  0  0  0  0  0  0  0  0  0  0  0
   -7.4364    5.0456  -15.5259 C   0  0  0  0  0  0  0  0  0  0  0  0
   -8.6622    4.6528  -16.0741 C   0  0  0  0  0  0  0  0  0  0  0  0
   -8.7575    4.3982  -17.4361 C   0  0  0  0  0  0  0  0  0  0  0  0
  -10.2991    4.0716  -18.1041 Cl  0  0  0  0  0  0  0  0  0  0  0  0
   -7.6512    4.4841  -18.2818 C   0  0  0  0  0  0  0  0  0  0  0  0
   -6.4418    4.8627  -17.6984 C   0  0  0  0  0  0  0  0  0  0  0  0
   -5.1971    5.0711  -18.2329 N   0  0  0  0  0  0  0  0  0  0  0  0
   -4.3509    5.4213  -17.2100 C   0  0  0  0  0  0  0  0  0  0  0  0
   -2.9134    5.6928  -17.4246 C   0  0  0  0  0  0  0  0  0  0  0  0
   -4.9935    5.4786  -16.0631 N   0  0  0  0  0  0  0  0  0  0  0  0
   -6.2986    5.1414  -16.3433 C   0  0  0  0  0  0  0  0  0  0  0  0
   -7.8446    5.8098  -11.1262 C   0  0  0  0  0  0  0  0  0  0  0  0
   -7.9446    5.9410   -9.7516 C   0  0  0  0  0  0  0  0  0  0  0  0
   -8.2920    4.8122   -9.0504 C   0  0  0  0  0  0  0  0  0  0  0  0
   -8.4029    4.6931   -7.6083 C   0  0  0  0  0  0  0  0  0  0  0  0
   -8.1064    5.5771   -6.8239 O   0  0  0  0  0  0  0  0  0  0  0  0
  1  2  1  0
  2  3  1  0
  3  4  1  0
  4  5  1  0
  5  6  1  0
  6  7  1  0
  7  8  2  0
  8  9  1  0
  9 10  1  0
 10 11  1  0
 11 12  2  0
 11 13  1  0
 13 14  2  0
 14 15  1  0
 15 16  1  0
 15 17  2  0
 17 18  1  0
 18 19  1  0
 19 20  1  0
 20 21  1  0
 20 22  2  0
 22 23  1  0
  9 24  2  0
 24 25  1  0
 25 26  2  0
 26 27  1  0
 27 28  2  0
 27  5  1  0
 26  7  1  0
 23 13  1  0
 23 18  2  0
M  END
>  <name>  (129) 
P134366

>  <alias>  (129) 
None

>  <smina_score_min>  (129) 
-7.977

>  <exports>  (129) 
['/opt/xchem-fragalysis-2/maxwin/BulkDock/OUTPUTS/openbind_xx01zvns2b_c2_elabs_1LOUTNY.sdf', '/opt/xchem-fragalysis-2/maxwin/BulkDock/OUTPUTS/openbind_xx01zvns2b_c2_elabs_1LSYIIV.sdf', '/opt/xchem-fragalysis-2/maxwin/openbind-hippo/xx01zvns2b/cycle_02/gnina/openbind_xx01zvns2b_c2_elabs_scored_6.2plus_products.sdf']

>  <tags>  (129) 
syndirella_placed,openbind_xx01zvns2b_c2_elabs,openbind_xx01zvns2b_c2_elabs_scored_6.2plus,syndirella_product,openbind_xx01zvns2b_c2_elabs_scored,openbind_xx01zvns2b_c1_elabs_filtered,openbind_xx01zvns2b_c2_elabs_scored_top80percent,BulkDock Fragalysis export,openbind_xx01zvns2b_c2_elabs_scored_top80percent_despaghettified

>  <subsites>  (129) 
1 - Z4590/B/203/1

>  <smiles>  (129) 
CCCCN1Cc2cc(NC(=O)c3cc(Cl)cc4[nH]c(C)nc34)ccc2C1=O

>  <HIPPO Pose ID>  (129) 
134366

>  <energy_score>  (129) 
-0.880396

>  <inchikey>  (129) 
SJMASESTFJXFDK-UHFFFAOYSA-N

>  <gnina_score_min>  (129) 
6.213

>  <gnina_score>  (129) 
6.058

>  <ref_mols>  (129) 
Z3502a

>  <HIPPO Compound ID>  (129) 
190903

>  <distance_score>  (129) 
0.67728

>  <rmsd(smina/fragmenstein)>  (129) 
0.852

>  <ref_pdb>  (129) 
Z3502a

>  <inspiration_score>  (129) 
None

$$$$
P134372
     RDKit          3D

 28 31  0  0  0  0  0  0  0  0999 V2000
  -11.7873    2.2123   -5.6592 C   0  0  0  0  0  0  0  0  0  0  0  0
  -11.0065    2.6724   -4.5791 O   0  0  0  0  0  0  0  0  0  0  0  0
   -9.8368    3.3741   -4.9875 C   0  0  0  0  0  0  0  0  0  0  0  0
   -8.9587    2.6226   -6.0016 C   0  0  0  0  0  0  0  0  0  0  0  0
   -9.0069    3.2084   -7.3272 N   0  0  0  0  0  0  0  0  0  0  0  0
   -8.9714    2.4003   -8.5500 C   0  0  0  0  0  0  0  0  0  0  0  0
   -8.6007    3.4143   -9.5909 C   0  0  0  0  0  0  0  0  0  0  0  0
   -8.4765    3.3115  -10.9706 C   0  0  0  0  0  0  0  0  0  0  0  0
   -8.0842    4.4575  -11.6853 C   0  0  0  0  0  0  0  0  0  0  0  0
   -7.9468    4.4197  -13.0721 N   0  0  0  0  0  0  0  0  0  0  0  0
   -7.4071    5.4874  -14.0605 C   0  0  0  0  0  0  0  0  0  0  0  0
   -7.0669    6.5903  -13.8731 O   0  0  0  0  0  0  0  0  0  0  0  0
   -7.4399    5.0118  -15.4514 C   0  0  0  0  0  0  0  0  0  0  0  0
   -8.6653    4.6276  -16.0104 C   0  0  0  0  0  0  0  0  0  0  0  0
   -8.7618    4.3997  -17.3788 C   0  0  0  0  0  0  0  0  0  0  0  0
  -10.2996    4.0771  -18.0603 Cl  0  0  0  0  0  0  0  0  0  0  0  0
   -7.6574    4.5071  -18.2236 C   0  0  0  0  0  0  0  0  0  0  0  0
   -6.4497    4.8773  -17.6332 C   0  0  0  0  0  0  0  0  0  0  0  0
   -5.2073    5.0981  -18.1676 N   0  0  0  0  0  0  0  0  0  0  0  0
   -4.3598    5.4345  -17.1419 C   0  0  0  0  0  0  0  0  0  0  0  0
   -2.9248    5.7183  -17.3580 C   0  0  0  0  0  0  0  0  0  0  0  0
   -4.9989    5.4669  -15.9919 N   0  0  0  0  0  0  0  0  0  0  0  0
   -6.3047    5.1296  -16.2725 C   0  0  0  0  0  0  0  0  0  0  0  0
   -7.8315    5.6716  -11.0167 C   0  0  0  0  0  0  0  0  0  0  0  0
   -7.9504    5.7693   -9.6378 C   0  0  0  0  0  0  0  0  0  0  0  0
   -8.3312    4.6314   -8.9663 C   0  0  0  0  0  0  0  0  0  0  0  0
   -8.5088    4.4803   -7.5305 C   0  0  0  0  0  0  0  0  0  0  0  0
   -8.2329    5.3355   -6.7078 O   0  0  0  0  0  0  0  0  0  0  0  0
  1  2  1  0
  2  3  1  0
  3  4  1  0
  4  5  1  0
  5  6  1  0
  6  7  1  0
  7  8  2  0
  8  9  1  0
  9 10  1  0
 10 11  1  0
 11 12  2  0
 11 13  1  0
 13 14  2  0
 14 15  1  0
 15 16  1  0
 15 17  2  0
 17 18  1  0
 18 19  1  0
 19 20  1  0
 20 21  1  0
 20 22  2  0
 22 23  1  0
  9 24  2  0
 24 25  1  0
 25 26  2  0
 26 27  1  0
 27 28  2  0
 27  5  1  0
 26  7  1  0
 23 13  1  0
 23 18  2  0
M  END
>  <name>  (130) 
P134372

>  <alias>  (130) 
None

>  <smina_score_min>  (130) 
-7.838

>  <exports>  (130) 
['/opt/xchem-fragalysis-2/maxwin/BulkDock/OUTPUTS/openbind_xx01zvns2b_c2_elabs_1LOUTNY.sdf', '/opt/xchem-fragalysis-2/maxwin/BulkDock/OUTPUTS/openbind_xx01zvns2b_c2_elabs_1LSYIIV.sdf', '/opt/xchem-fragalysis-2/maxwin/openbind-hippo/xx01zvns2b/cycle_02/gnina/openbind_xx01zvns2b_c2_elabs_scored_6.2plus_products.sdf']

>  <tags>  (130) 
syndirella_placed,openbind_xx01zvns2b_c2_elabs,openbind_xx01zvns2b_c2_elabs_scored_6.2plus,syndirella_product,openbind_xx01zvns2b_c2_elabs_scored,openbind_xx01zvns2b_c1_elabs_filtered,openbind_xx01zvns2b_c2_elabs_scored_top80percent,BulkDock Fragalysis export,openbind_xx01zvns2b_c2_elabs_scored_top80percent_despaghettified

>  <subsites>  (130) 
1 - Z4590/B/203/1

>  <smiles>  (130) 
COCCN1Cc2cc(NC(=O)c3cc(Cl)cc4[nH]c(C)nc34)ccc2C1=O

>  <HIPPO Pose ID>  (130) 
134372

>  <energy_score>  (130) 
-7.922135

>  <inchikey>  (130) 
LGTHEODXKWQUJN-UHFFFAOYSA-N

>  <gnina_score_min>  (130) 
6.3

>  <gnina_score>  (130) 
5.975

>  <ref_mols>  (130) 
Z3502a

>  <HIPPO Compound ID>  (130) 
190908

>  <distance_score>  (130) 
0.561892

>  <rmsd(smina/fragmenstein)>  (130) 
0.833

>  <ref_pdb>  (130) 
Z3502a

>  <inspiration_score>  (130) 
None

$$$$
P134373
     RDKit          3D

 28 31  0  0  0  0  0  0  0  0999 V2000
   -8.9504    5.8459   -3.9518 C   0  0  0  0  0  0  0  0  0  0  0  0
   -9.8388    4.9813   -4.6436 O   0  0  0  0  0  0  0  0  0  0  0  0
   -9.4776    3.6066   -4.4742 C   0  0  0  0  0  0  0  0  0  0  0  0
  -10.3954    2.7164   -5.3119 C   0  0  0  0  0  0  0  0  0  0  0  0
   -9.6857    2.0099   -6.4775 C   0  0  0  0  0  0  0  0  0  0  0  0
   -9.5960    2.8301   -7.6704 N   0  0  0  0  0  0  0  0  0  0  0  0
   -8.7577    4.0328   -7.5694 C   0  0  0  0  0  0  0  0  0  0  0  0
   -8.3983    4.3228   -8.9905 C   0  0  0  0  0  0  0  0  0  0  0  0
   -7.9422    5.4929   -9.5611 C   0  0  0  0  0  0  0  0  0  0  0  0
   -7.7377    5.5077  -10.9417 C   0  0  0  0  0  0  0  0  0  0  0  0
   -7.9812    4.3631  -11.7197 C   0  0  0  0  0  0  0  0  0  0  0  0
   -7.8500    4.4008  -13.1039 N   0  0  0  0  0  0  0  0  0  0  0  0
   -7.4159    5.5532  -14.0415 C   0  0  0  0  0  0  0  0  0  0  0  0
   -7.1750    6.6715  -13.8053 O   0  0  0  0  0  0  0  0  0  0  0  0
   -7.4225    5.1098  -15.4435 C   0  0  0  0  0  0  0  0  0  0  0  0
   -8.6372    4.7042  -16.0144 C   0  0  0  0  0  0  0  0  0  0  0  0
   -8.7117    4.4427  -17.3775 C   0  0  0  0  0  0  0  0  0  0  0  0
  -10.2337    4.0715  -18.0705 Cl  0  0  0  0  0  0  0  0  0  0  0  0
   -7.5948    4.5436  -18.2059 C   0  0  0  0  0  0  0  0  0  0  0  0
   -6.3989    4.9326  -17.6019 C   0  0  0  0  0  0  0  0  0  0  0  0
   -5.1469    5.1369  -18.1177 N   0  0  0  0  0  0  0  0  0  0  0  0
   -4.3148    5.4891  -17.0855 C   0  0  0  0  0  0  0  0  0  0  0  0
   -2.8720    5.7477  -17.2796 C   0  0  0  0  0  0  0  0  0  0  0  0
   -4.9758    5.5605  -15.9499 N   0  0  0  0  0  0  0  0  0  0  0  0
   -6.2758    5.2167  -16.2447 C   0  0  0  0  0  0  0  0  0  0  0  0
   -8.4099    3.1752  -11.1210 C   0  0  0  0  0  0  0  0  0  0  0  0
   -8.6223    3.1773   -9.7554 C   0  0  0  0  0  0  0  0  0  0  0  0
   -9.1166    2.0888   -8.8553 C   0  0  0  0  0  0  0  0  0  0  0  0
  1  2  1  0
  2  3  1  0
  3  4  1  0
  4  5  1  0
  5  6  1  0
  6  7  1  0
  7  8  1  0
  8  9  2  0
  9 10  1  0
 10 11  2  0
 11 12  1  0
 12 13  1  0
 13 14  2  0
 13 15  1  0
 15 16  2  0
 16 17  1  0
 17 18  1  0
 17 19  2  0
 19 20  1  0
 20 21  1  0
 21 22  1  0
 22 23  1  0
 22 24  2  0
 24 25  1  0
 11 26  1  0
 26 27  2  0
 27 28  1  0
 28  6  1  0
 27  8  1  0
 25 15  1  0
 25 20  2  0
M  END
>  <name>  (131) 
P134373

>  <alias>  (131) 
None

>  <smina_score_min>  (131) 
-8.277

>  <exports>  (131) 
['/opt/xchem-fragalysis-2/maxwin/BulkDock/OUTPUTS/openbind_xx01zvns2b_c2_elabs_1LOUTNY.sdf', '/opt/xchem-fragalysis-2/maxwin/BulkDock/OUTPUTS/openbind_xx01zvns2b_c2_elabs_1LSYIIV.sdf', '/opt/xchem-fragalysis-2/maxwin/openbind-hippo/xx01zvns2b/cycle_02/gnina/openbind_xx01zvns2b_c2_elabs_scored_6.2plus_products.sdf']

>  <tags>  (131) 
syndirella_placed,openbind_xx01zvns2b_c2_elabs,openbind_xx01zvns2b_c2_elabs_scored_6.2plus,syndirella_product,openbind_xx01zvns2b_c2_elabs_scored,openbind_xx01zvns2b_c1_elabs_filtered,openbind_xx01zvns2b_c2_elabs_scored_top80percent,BulkDock Fragalysis export,openbind_xx01zvns2b_c2_elabs_scored_top80percent_despaghettified

>  <subsites>  (131) 
1 - Z4590/B/203/1

>  <smiles>  (131) 
COCCCN1Cc2ccc(NC(=O)c3cc(Cl)cc4[nH]c(C)nc34)cc2C1

>  <HIPPO Pose ID>  (131) 
134373

>  <energy_score>  (131) 
-42.654716

>  <inchikey>  (131) 
JBWYNRHYEAQJOV-UHFFFAOYSA-N

>  <gnina_score_min>  (131) 
6.26

>  <gnina_score>  (131) 
6.115

>  <ref_mols>  (131) 
Z3502a

>  <HIPPO Compound ID>  (131) 
190910

>  <distance_score>  (131) 
0.520144

>  <rmsd(smina/fragmenstein)>  (131) 
0.466

>  <ref_pdb>  (131) 
Z3502a

>  <inspiration_score>  (131) 
None

$$$$
P134374
     RDKit          3D

 29 32  0  0  0  0  0  0  0  0999 V2000
   -8.0081    4.6835   -1.7948 C   0  0  0  0  0  0  0  0  0  0  0  0
   -9.1745    5.2941   -2.5491 C   0  0  0  0  0  0  0  0  0  0  0  0
   -9.9234    4.3160   -3.2638 O   0  0  0  0  0  0  0  0  0  0  0  0
   -9.2736    3.8393   -4.4460 C   0  0  0  0  0  0  0  0  0  0  0  0
  -10.2301    2.9289   -5.2150 C   0  0  0  0  0  0  0  0  0  0  0  0
   -9.5904    2.1779   -6.3918 C   0  0  0  0  0  0  0  0  0  0  0  0
   -9.5367    2.9613   -7.6132 N   0  0  0  0  0  0  0  0  0  0  0  0
   -8.6804    4.1501   -7.5760 C   0  0  0  0  0  0  0  0  0  0  0  0
   -8.3615    4.3987   -9.0094 C   0  0  0  0  0  0  0  0  0  0  0  0
   -7.9094    5.5548   -9.6082 C   0  0  0  0  0  0  0  0  0  0  0  0
   -7.7377    5.5415  -10.9896 C   0  0  0  0  0  0  0  0  0  0  0  0
   -8.0019    4.3830  -11.7404 C   0  0  0  0  0  0  0  0  0  0  0  0
   -7.8701    4.4076  -13.1253 N   0  0  0  0  0  0  0  0  0  0  0  0
   -7.3385    5.5172  -14.0653 C   0  0  0  0  0  0  0  0  0  0  0  0
   -7.0008    6.6107  -13.8307 O   0  0  0  0  0  0  0  0  0  0  0  0
   -7.3839    5.0798  -15.4688 C   0  0  0  0  0  0  0  0  0  0  0  0
   -8.6092    4.6870  -16.0249 C   0  0  0  0  0  0  0  0  0  0  0  0
   -8.7021    4.4363  -17.3893 C   0  0  0  0  0  0  0  0  0  0  0  0
  -10.2343    4.0756  -18.0662 Cl  0  0  0  0  0  0  0  0  0  0  0  0
   -7.5955    4.5380  -18.2326 C   0  0  0  0  0  0  0  0  0  0  0  0
   -6.3891    4.9174  -17.6440 C   0  0  0  0  0  0  0  0  0  0  0  0
   -5.1428    5.1251  -18.1742 N   0  0  0  0  0  0  0  0  0  0  0  0
   -4.2964    5.4610  -17.1476 C   0  0  0  0  0  0  0  0  0  0  0  0
   -2.8557    5.7189  -17.3574 C   0  0  0  0  0  0  0  0  0  0  0  0
   -4.9418    5.5169  -16.0025 N   0  0  0  0  0  0  0  0  0  0  0  0
   -6.2476    5.1866  -16.2862 C   0  0  0  0  0  0  0  0  0  0  0  0
   -8.4354    3.2098  -11.1130 C   0  0  0  0  0  0  0  0  0  0  0  0
   -8.6216    3.2401   -9.7426 C   0  0  0  0  0  0  0  0  0  0  0  0
   -9.1142    2.1819   -8.8013 C   0  0  0  0  0  0  0  0  0  0  0  0
  1  2  1  0
  2  3  1  0
  3  4  1  0
  4  5  1  0
  5  6  1  0
  6  7  1  0
  7  8  1  0
  8  9  1  0
  9 10  2  0
 10 11  1  0
 11 12  2  0
 12 13  1  0
 13 14  1  0
 14 15  2  0
 14 16  1  0
 16 17  2  0
 17 18  1  0
 18 19  1  0
 18 20  2  0
 20 21  1  0
 21 22  1  0
 22 23  1  0
 23 24  1  0
 23 25  2  0
 25 26  1  0
 12 27  1  0
 27 28  2  0
 28 29  1  0
 29  7  1  0
 28  9  1  0
 26 16  1  0
 26 21  2  0
M  END
>  <name>  (132) 
P134374

>  <alias>  (132) 
None

>  <smina_score_min>  (132) 
-8.13

>  <exports>  (132) 
['/opt/xchem-fragalysis-2/maxwin/BulkDock/OUTPUTS/openbind_xx01zvns2b_c2_elabs_1LOUTNY.sdf', '/opt/xchem-fragalysis-2/maxwin/BulkDock/OUTPUTS/openbind_xx01zvns2b_c2_elabs_1LSYIIV.sdf', '/opt/xchem-fragalysis-2/maxwin/openbind-hippo/xx01zvns2b/cycle_02/gnina/openbind_xx01zvns2b_c2_elabs_scored_6.2plus_products.sdf']

>  <tags>  (132) 
syndirella_placed,openbind_xx01zvns2b_c2_elabs,openbind_xx01zvns2b_c2_elabs_scored_6.2plus,syndirella_product,openbind_xx01zvns2b_c2_elabs_scored,openbind_xx01zvns2b_c1_elabs_filtered,openbind_xx01zvns2b_c2_elabs_scored_top80percent,BulkDock Fragalysis export,openbind_xx01zvns2b_c2_elabs_scored_top80percent_despaghettified

>  <subsites>  (132) 
1 - Z4590/B/203/1

>  <smiles>  (132) 
CCOCCCN1Cc2ccc(NC(=O)c3cc(Cl)cc4[nH]c(C)nc34)cc2C1

>  <HIPPO Pose ID>  (132) 
134374

>  <energy_score>  (132) 
-23.96471

>  <inchikey>  (132) 
SWVCATWKDFNXBN-UHFFFAOYSA-N

>  <gnina_score_min>  (132) 
6.263

>  <gnina_score>  (132) 
6.098

>  <ref_mols>  (132) 
Z3502a

>  <HIPPO Compound ID>  (132) 
190914

>  <distance_score>  (132) 
0.53559

>  <rmsd(smina/fragmenstein)>  (132) 
0.705

>  <ref_pdb>  (132) 
Z3502a

>  <inspiration_score>  (132) 
None

$$$$
P134378
     RDKit          3D

 31 35  0  0  0  0  0  0  0  0999 V2000
   -2.9051    5.7399  -17.2718 C   0  0  0  0  0  0  0  0  0  0  0  0
   -4.3472    5.4630  -17.0957 C   0  0  0  0  0  0  0  0  0  0  0  0
   -5.0222    5.5176  -15.9675 N   0  0  0  0  0  0  0  0  0  0  0  0
   -6.3140    5.1613  -16.2818 C   0  0  0  0  0  0  0  0  0  0  0  0
   -7.4714    5.0463  -15.4986 C   0  0  0  0  0  0  0  0  0  0  0  0
   -7.5114    5.5586  -14.1289 C   0  0  0  0  0  0  0  0  0  0  0  0
   -7.3103    6.6983  -13.9666 O   0  0  0  0  0  0  0  0  0  0  0  0
   -7.9278    4.4589  -13.1205 N   0  0  0  0  0  0  0  0  0  0  0  0
   -8.0846    4.5125  -11.7408 C   0  0  0  0  0  0  0  0  0  0  0  0
   -7.9442    5.7588  -11.0982 C   0  0  0  0  0  0  0  0  0  0  0  0
   -8.1534    5.8873   -9.7356 C   0  0  0  0  0  0  0  0  0  0  0  0
   -8.4808    4.7398   -9.0549 C   0  0  0  0  0  0  0  0  0  0  0  0
   -8.6000    3.4815   -9.6482 C   0  0  0  0  0  0  0  0  0  0  0  0
   -8.4150    3.3547  -11.0159 C   0  0  0  0  0  0  0  0  0  0  0  0
   -8.9240    2.4650   -8.5955 C   0  0  0  0  0  0  0  0  0  0  0  0
   -8.9044    3.2834   -7.3830 N   0  0  0  0  0  0  0  0  0  0  0  0
   -9.0242    2.7407   -6.0489 C   0  0  1  0  0  0  0  0  0  0  0  0
   -8.0292    3.3419   -5.0460 C   0  0  0  0  0  0  0  0  0  0  0  0
   -8.8846    3.8058   -3.9119 C   0  0  0  0  0  0  0  0  0  0  0  0
   -8.4732    4.2389   -2.8452 O   0  0  0  0  0  0  0  0  0  0  0  0
  -10.1860    3.6580   -4.2395 N   0  0  0  0  0  0  0  0  0  0  0  0
  -10.3750    3.0686   -5.4455 C   0  0  0  0  0  0  0  0  0  0  0  0
  -11.4732    2.8821   -5.9429 O   0  0  0  0  0  0  0  0  0  0  0  0
   -8.7370    4.6218   -7.6312 C   0  0  0  0  0  0  0  0  0  0  0  0
   -8.7715    5.5527   -6.8479 O   0  0  0  0  0  0  0  0  0  0  0  0
   -8.6776    4.6417  -16.0798 C   0  0  0  0  0  0  0  0  0  0  0  0
   -8.7360    4.3957  -17.4439 C   0  0  0  0  0  0  0  0  0  0  0  0
  -10.2582    4.0582  -18.1469 Cl  0  0  0  0  0  0  0  0  0  0  0  0
   -7.6096    4.5000  -18.2600 C   0  0  0  0  0  0  0  0  0  0  0  0
   -6.4195    4.8864  -17.6415 C   0  0  0  0  0  0  0  0  0  0  0  0
   -5.1640    5.1100  -18.1403 N   0  0  0  0  0  0  0  0  0  0  0  0
  1  2  1  0
  2  3  2  0
  3  4  1  0
  4  5  2  0
  5  6  1  0
  6  7  2  0
  6  8  1  0
  8  9  1  0
  9 10  2  0
 10 11  1  0
 11 12  2  0
 12 13  1  0
 13 14  2  0
 13 15  1  0
 15 16  1  0
 17 16  1  6
 17 18  1  0
 18 19  1  0
 19 20  2  0
 19 21  1  0
 21 22  1  0
 22 23  2  0
 16 24  1  0
 24 25  2  0
  5 26  1  0
 26 27  2  0
 27 28  1  0
 27 29  1  0
 29 30  2  0
 30 31  1  0
 31  2  1  0
 30  4  1  0
 14  9  1  0
 22 17  1  0
 24 12  1  0
M  END
>  <name>  (133) 
P134378

>  <alias>  (133) 
None

>  <smina_score_min>  (133) 
-9.126

>  <exports>  (133) 
['/opt/xchem-fragalysis-2/maxwin/BulkDock/OUTPUTS/openbind_xx01zvns2b_c2_elabs_1LOUTNY.sdf', '/opt/xchem-fragalysis-2/maxwin/BulkDock/OUTPUTS/openbind_xx01zvns2b_c2_elabs_1LSYIIV.sdf', '/opt/xchem-fragalysis-2/maxwin/openbind-hippo/xx01zvns2b/cycle_02/gnina/openbind_xx01zvns2b_c2_elabs_scored_6.2plus_products.sdf']

>  <tags>  (133) 
syndirella_placed,openbind_xx01zvns2b_c2_elabs,openbind_xx01zvns2b_c2_elabs_scored_6.2plus,syndirella_product,openbind_xx01zvns2b_c2_elabs_scored,openbind_xx01zvns2b_c1_elabs_filtered,openbind_xx01zvns2b_c2_elabs_scored_top80percent,BulkDock Fragalysis export,openbind_xx01zvns2b_c2_elabs_scored_top80percent_despaghettified

>  <subsites>  (133) 
1 - Z4590/B/203/1

>  <smiles>  (133) 
Cc1nc2c(C(=O)Nc3ccc4c(c3)CN([C@H]3CC(=O)NC3=O)C4=O)cc(Cl)cc2[nH]1

>  <HIPPO Pose ID>  (133) 
134378

>  <energy_score>  (133) 
-36.733936

>  <inchikey>  (133) 
ISAOWJMVPJYTLO-INIZCTEOSA-N

>  <gnina_score_min>  (133) 
6.243

>  <gnina_score>  (133) 
6.118

>  <ref_mols>  (133) 
Z3502a

>  <HIPPO Compound ID>  (133) 
190919

>  <distance_score>  (133) 
0.618087

>  <rmsd(smina/fragmenstein)>  (133) 
0.513

>  <ref_pdb>  (133) 
Z3502a

>  <inspiration_score>  (133) 
None

$$$$
P134382
     RDKit          3D

 32 36  0  0  0  0  0  0  0  0999 V2000
   -2.9154    5.7131  -17.3647 C   0  0  0  0  0  0  0  0  0  0  0  0
   -4.3534    5.4354  -17.1602 C   0  0  0  0  0  0  0  0  0  0  0  0
   -5.0006    5.4769  -16.0158 N   0  0  0  0  0  0  0  0  0  0  0  0
   -6.3008    5.1290  -16.3033 C   0  0  0  0  0  0  0  0  0  0  0  0
   -7.4386    5.0126  -15.4908 C   0  0  0  0  0  0  0  0  0  0  0  0
   -7.4162    5.5193  -14.1188 C   0  0  0  0  0  0  0  0  0  0  0  0
   -7.2166    6.6617  -13.9709 O   0  0  0  0  0  0  0  0  0  0  0  0
   -7.7724    4.4200  -13.0862 N   0  0  0  0  0  0  0  0  0  0  0  0
   -8.0398    4.5127  -11.7235 C   0  0  0  0  0  0  0  0  0  0  0  0
   -7.9502    5.7819  -11.1173 C   0  0  0  0  0  0  0  0  0  0  0  0
   -8.2046    5.9499   -9.7679 C   0  0  0  0  0  0  0  0  0  0  0  0
   -8.5295    4.8186   -9.0599 C   0  0  0  0  0  0  0  0  0  0  0  0
   -8.6147    3.5410   -9.6145 C   0  0  0  0  0  0  0  0  0  0  0  0
   -8.3832    3.3737  -10.9728 C   0  0  0  0  0  0  0  0  0  0  0  0
   -8.9342    2.5566   -8.5278 C   0  0  0  0  0  0  0  0  0  0  0  0
   -8.9227    3.4147   -7.3374 N   0  0  0  0  0  0  0  0  0  0  0  0
   -8.9140    2.8968   -5.9783 C   0  0  1  0  0  0  0  0  0  0  0  0
   -7.7683    3.5063   -5.1470 C   0  0  0  0  0  0  0  0  0  0  0  0
   -8.1549    4.5643   -4.1356 C   0  0  2  0  0  0  0  0  0  0  0  0
   -7.0970    4.7382   -3.2875 F   0  0  0  0  0  0  0  0  0  0  0  0
   -9.3467    4.0919   -3.3408 C   0  0  0  0  0  0  0  0  0  0  0  0
  -10.4453    3.7436   -4.1996 N   0  0  0  0  0  0  0  0  0  0  0  0
  -10.3086    3.0227   -5.3531 C   0  0  0  0  0  0  0  0  0  0  0  0
  -11.3245    2.5563   -5.8635 O   0  0  0  0  0  0  0  0  0  0  0  0
   -8.7763    4.7436   -7.6321 C   0  0  0  0  0  0  0  0  0  0  0  0
   -8.7855    5.7065   -6.8885 O   0  0  0  0  0  0  0  0  0  0  0  0
   -8.6626    4.6231  -16.0439 C   0  0  0  0  0  0  0  0  0  0  0  0
   -8.7544    4.3900  -17.4102 C   0  0  0  0  0  0  0  0  0  0  0  0
  -10.2920    4.0685  -18.0908 Cl  0  0  0  0  0  0  0  0  0  0  0  0
   -7.6468    4.4948  -18.2533 C   0  0  0  0  0  0  0  0  0  0  0  0
   -6.4402    4.8701  -17.6623 C   0  0  0  0  0  0  0  0  0  0  0  0
   -5.1962    5.0961  -18.1890 N   0  0  0  0  0  0  0  0  0  0  0  0
  1  2  1  0
  2  3  2  0
  3  4  1  0
  4  5  2  0
  5  6  1  0
  6  7  2  0
  6  8  1  0
  8  9  1  0
  9 10  2  0
 10 11  1  0
 11 12  2  0
 12 13  1  0
 13 14  2  0
 13 15  1  0
 15 16  1  0
 17 16  1  6
 17 18  1  0
 18 19  1  0
 19 20  1  1
 19 21  1  0
 21 22  1  0
 22 23  1  0
 23 24  2  0
 16 25  1  0
 25 26  2  0
  5 27  1  0
 27 28  2  0
 28 29  1  0
 28 30  1  0
 30 31  2  0
 31 32  1  0
 32  2  1  0
 31  4  1  0
 14  9  1  0
 23 17  1  0
 25 12  1  0
M  END
>  <name>  (134) 
P134382

>  <alias>  (134) 
None

>  <smina_score_min>  (134) 
-8.966

>  <exports>  (134) 
['/opt/xchem-fragalysis-2/maxwin/BulkDock/OUTPUTS/openbind_xx01zvns2b_c2_elabs_1LOUTNY.sdf', '/opt/xchem-fragalysis-2/maxwin/BulkDock/OUTPUTS/openbind_xx01zvns2b_c2_elabs_1LSYIIV.sdf', '/opt/xchem-fragalysis-2/maxwin/openbind-hippo/xx01zvns2b/cycle_02/gnina/openbind_xx01zvns2b_c2_elabs_scored_6.2plus_products.sdf']

>  <tags>  (134) 
syndirella_placed,openbind_xx01zvns2b_c2_elabs,openbind_xx01zvns2b_c2_elabs_scored_6.2plus,syndirella_product,openbind_xx01zvns2b_c2_elabs_scored,openbind_xx01zvns2b_c1_elabs_filtered,openbind_xx01zvns2b_c2_elabs_scored_top80percent,BulkDock Fragalysis export,openbind_xx01zvns2b_c2_elabs_scored_top80percent_despaghettified

>  <subsites>  (134) 
1 - Z4590/B/203/1

>  <smiles>  (134) 
Cc1nc2c(C(=O)Nc3ccc4c(c3)CN([C@H]3C[C@H](F)CNC3=O)C4=O)cc(Cl)cc2[nH]1

>  <HIPPO Pose ID>  (134) 
134382

>  <energy_score>  (134) 
-34.101908

>  <inchikey>  (134) 
VWRIYBUMSKWNOT-UGSOOPFHSA-N

>  <gnina_score_min>  (134) 
6.219

>  <gnina_score>  (134) 
6.211

>  <ref_mols>  (134) 
Z3502a

>  <HIPPO Compound ID>  (134) 
190920

>  <distance_score>  (134) 
0.652622

>  <rmsd(smina/fragmenstein)>  (134) 
0.567

>  <ref_pdb>  (134) 
Z3502a

>  <inspiration_score>  (134) 
None

$$$$
P134392
     RDKit          3D

 32 36  0  0  0  0  0  0  0  0999 V2000
   -2.8159    5.6486  -17.7271 C   0  0  0  0  0  0  0  0  0  0  0  0
   -4.2563    5.4346  -17.4776 C   0  0  0  0  0  0  0  0  0  0  0  0
   -4.8711    5.5794  -16.3247 N   0  0  0  0  0  0  0  0  0  0  0  0
   -6.1874    5.2659  -16.5619 C   0  0  0  0  0  0  0  0  0  0  0  0
   -7.3017    5.2486  -15.7154 C   0  0  0  0  0  0  0  0  0  0  0  0
   -7.1682    5.7360  -14.3408 C   0  0  0  0  0  0  0  0  0  0  0  0
   -6.7451    6.8038  -14.1409 O   0  0  0  0  0  0  0  0  0  0  0  0
   -7.6795    4.6637  -13.3587 N   0  0  0  0  0  0  0  0  0  0  0  0
   -7.6894    4.6436  -11.9780 C   0  0  0  0  0  0  0  0  0  0  0  0
   -7.1523    5.7228  -11.2464 C   0  0  0  0  0  0  0  0  0  0  0  0
   -7.1357    5.7089   -9.8551 C   0  0  0  0  0  0  0  0  0  0  0  0
   -7.6859    4.6080   -9.2455 C   0  0  0  0  0  0  0  0  0  0  0  0
   -8.2424    3.5747   -9.9631 C   0  0  0  0  0  0  0  0  0  0  0  0
   -8.2499    3.5440  -11.3380 C   0  0  0  0  0  0  0  0  0  0  0  0
   -8.9158    2.7059   -9.0281 C   0  0  0  0  0  0  0  0  0  0  0  0
   -9.6516    1.8349   -9.4544 O   0  0  0  0  0  0  0  0  0  0  0  0
   -8.6736    3.2209   -7.7669 N   0  0  0  0  0  0  0  0  0  0  0  0
   -9.4098    2.8420   -6.6305 C   0  0  0  0  0  0  0  0  0  0  0  0
  -10.2069    1.7073   -6.6982 C   0  0  0  0  0  0  0  0  0  0  0  0
  -11.2312    1.5447   -5.7983 C   0  0  0  0  0  0  0  0  0  0  0  0
  -11.3881    2.4208   -4.7578 C   0  0  0  0  0  0  0  0  0  0  0  0
  -12.4514    2.2646   -3.9618 F   0  0  0  0  0  0  0  0  0  0  0  0
  -10.4851    3.4467   -4.5497 C   0  0  0  0  0  0  0  0  0  0  0  0
   -9.4968    3.6676   -5.4980 C   0  0  0  0  0  0  0  0  0  0  0  0
   -7.9026    4.3538   -7.8365 C   0  0  0  0  0  0  0  0  0  0  0  0
   -7.4579    5.1135   -6.9910 O   0  0  0  0  0  0  0  0  0  0  0  0
   -8.5482    4.8278  -16.1923 C   0  0  0  0  0  0  0  0  0  0  0  0
   -8.6826    4.4669  -17.5262 C   0  0  0  0  0  0  0  0  0  0  0  0
  -10.2407    4.0700  -18.1133 Cl  0  0  0  0  0  0  0  0  0  0  0  0
   -7.5988    4.4845  -18.4061 C   0  0  0  0  0  0  0  0  0  0  0  0
   -6.3696    4.8964  -17.8879 C   0  0  0  0  0  0  0  0  0  0  0  0
   -5.1347    5.0517  -18.4626 N   0  0  0  0  0  0  0  0  0  0  0  0
  1  2  1  0
  2  3  2  0
  3  4  1  0
  4  5  2  0
  5  6  1  0
  6  7  2  0
  6  8  1  0
  8  9  1  0
  9 10  2  0
 10 11  1  0
 11 12  2  0
 12 13  1  0
 13 14  2  0
 13 15  1  0
 15 16  2  0
 15 17  1  0
 17 18  1  0
 18 19  2  0
 19 20  1  0
 20 21  2  0
 21 22  1  0
 21 23  1  0
 23 24  2  0
 17 25  1  0
 25 26  2  0
  5 27  1  0
 27 28  2  0
 28 29  1  0
 28 30  1  0
 30 31  2  0
 31 32  1  0
 32  2  1  0
 31  4  1  0
 14  9  1  0
 24 18  1  0
 25 12  1  0
M  END
>  <name>  (135) 
P134392

>  <alias>  (135) 
None

>  <smina_score_min>  (135) 
-9.884

>  <exports>  (135) 
['/opt/xchem-fragalysis-2/maxwin/BulkDock/OUTPUTS/openbind_xx01zvns2b_c2_elabs_1LOUTNY.sdf', '/opt/xchem-fragalysis-2/maxwin/BulkDock/OUTPUTS/openbind_xx01zvns2b_c2_elabs_1LSYIIV.sdf', '/opt/xchem-fragalysis-2/maxwin/openbind-hippo/xx01zvns2b/cycle_02/gnina/openbind_xx01zvns2b_c2_elabs_scored_6.2plus_products.sdf']

>  <tags>  (135) 
syndirella_placed,openbind_xx01zvns2b_c2_elabs,openbind_xx01zvns2b_c2_elabs_scored_6.2plus,syndirella_product,openbind_xx01zvns2b_c2_elabs_scored,openbind_xx01zvns2b_c1_elabs_filtered,openbind_xx01zvns2b_c2_elabs_scored_top80percent,BulkDock Fragalysis export,openbind_xx01zvns2b_c2_elabs_scored_top80percent_despaghettified

>  <subsites>  (135) 
1 - Z4590/B/203/1

>  <smiles>  (135) 
Cc1nc2c(C(=O)Nc3ccc4c(c3)C(=O)N(c3ccc(F)cc3)C4=O)cc(Cl)cc2[nH]1

>  <HIPPO Pose ID>  (135) 
134392

>  <energy_score>  (135) 
-28.298147

>  <inchikey>  (135) 
LUTOPJRVEURNSH-UHFFFAOYSA-N

>  <gnina_score_min>  (135) 
6.374

>  <gnina_score>  (135) 
6.159

>  <ref_mols>  (135) 
Z3502a

>  <HIPPO Compound ID>  (135) 
190927

>  <distance_score>  (135) 
0.913111

>  <rmsd(smina/fragmenstein)>  (135) 
1.05

>  <ref_pdb>  (135) 
Z3502a

>  <inspiration_score>  (135) 
None

$$$$
P134393
     RDKit          3D

 33 37  0  0  0  0  0  0  0  0999 V2000
   -2.7771    5.7165  -17.5613 C   0  0  0  0  0  0  0  0  0  0  0  0
   -4.2243    5.4993  -17.3551 C   0  0  0  0  0  0  0  0  0  0  0  0
   -4.8838    5.6739  -16.2300 N   0  0  0  0  0  0  0  0  0  0  0  0
   -6.1834    5.3296  -16.5071 C   0  0  0  0  0  0  0  0  0  0  0  0
   -7.3291    5.3152  -15.7104 C   0  0  0  0  0  0  0  0  0  0  0  0
   -7.3135    5.8661  -14.3607 C   0  0  0  0  0  0  0  0  0  0  0  0
   -7.2665    7.0181  -14.1984 O   0  0  0  0  0  0  0  0  0  0  0  0
   -7.4687    4.7229  -13.3467 N   0  0  0  0  0  0  0  0  0  0  0  0
   -7.6849    4.7562  -11.9847 C   0  0  0  0  0  0  0  0  0  0  0  0
   -7.9782    5.9778  -11.3368 C   0  0  0  0  0  0  0  0  0  0  0  0
   -8.2945    6.0160   -9.9805 C   0  0  0  0  0  0  0  0  0  0  0  0
   -8.2647    4.8161   -9.3168 C   0  0  0  0  0  0  0  0  0  0  0  0
   -7.9217    3.6366   -9.9463 C   0  0  0  0  0  0  0  0  0  0  0  0
   -7.6569    3.5548  -11.2895 C   0  0  0  0  0  0  0  0  0  0  0  0
   -7.9310    2.5914   -8.9532 C   0  0  0  0  0  0  0  0  0  0  0  0
   -7.6423    1.4432   -9.2057 O   0  0  0  0  0  0  0  0  0  0  0  0
   -8.3243    3.1725   -7.7838 N   0  0  0  0  0  0  0  0  0  0  0  0
   -8.8532    2.3658   -6.7200 C   0  0  2  0  0  0  0  0  0  0  0  0
  -10.2427    1.9189   -7.1213 C   0  0  0  0  0  0  0  0  0  0  0  0
  -10.9375    1.4175   -5.9100 C   0  0  0  0  0  0  0  0  0  0  0  0
  -11.0346    2.4987   -4.9052 C   0  0  0  0  0  0  0  0  0  0  0  0
  -12.0437    2.6120   -4.2252 O   0  0  0  0  0  0  0  0  0  0  0  0
   -9.9384    3.2930   -4.7287 N   0  0  0  0  0  0  0  0  0  0  0  0
   -8.7465    3.1371   -5.3946 C   0  0  0  0  0  0  0  0  0  0  0  0
   -7.6993    3.6172   -4.9494 O   0  0  0  0  0  0  0  0  0  0  0  0
   -8.6235    4.4916   -7.9502 C   0  0  0  0  0  0  0  0  0  0  0  0
   -9.1606    5.2738   -7.1881 O   0  0  0  0  0  0  0  0  0  0  0  0
   -8.5476    4.8485  -16.2124 C   0  0  0  0  0  0  0  0  0  0  0  0
   -8.6320    4.4623  -17.5411 C   0  0  0  0  0  0  0  0  0  0  0  0
  -10.1651    4.0260  -18.1619 Cl  0  0  0  0  0  0  0  0  0  0  0  0
   -7.5201    4.4891  -18.3854 C   0  0  0  0  0  0  0  0  0  0  0  0
   -6.3140    4.9251  -17.8300 C   0  0  0  0  0  0  0  0  0  0  0  0
   -5.0614    5.0824  -18.3622 N   0  0  0  0  0  0  0  0  0  0  0  0
  1  2  1  0
  2  3  2  0
  3  4  1  0
  4  5  2  0
  5  6  1  0
  6  7  2  0
  6  8  1  0
  8  9  1  0
  9 10  2  0
 10 11  1  0
 11 12  2  0
 12 13  1  0
 13 14  2  0
 13 15  1  0
 15 16  2  0
 15 17  1  0
 18 17  1  6
 18 19  1  0
 19 20  1  0
 20 21  1  0
 21 22  2  0
 21 23  1  0
 23 24  1  0
 24 25  2  0
 17 26  1  0
 26 27  2  0
  5 28  1  0
 28 29  2  0
 29 30  1  0
 29 31  1  0
 31 32  2  0
 32 33  1  0
 33  2  1  0
 32  4  1  0
 14  9  1  0
 24 18  1  0
 26 12  1  0
M  END
>  <name>  (136) 
P134393

>  <alias>  (136) 
None

>  <smina_score_min>  (136) 
-8.178

>  <exports>  (136) 
['/opt/xchem-fragalysis-2/maxwin/BulkDock/OUTPUTS/openbind_xx01zvns2b_c2_elabs_1LOUTNY.sdf', '/opt/xchem-fragalysis-2/maxwin/BulkDock/OUTPUTS/openbind_xx01zvns2b_c2_elabs_1LSYIIV.sdf', '/opt/xchem-fragalysis-2/maxwin/openbind-hippo/xx01zvns2b/cycle_02/gnina/openbind_xx01zvns2b_c2_elabs_scored_6.2plus_products.sdf']

>  <tags>  (136) 
syndirella_placed,openbind_xx01zvns2b_c2_elabs,openbind_xx01zvns2b_c2_elabs_scored_6.2plus,syndirella_product,openbind_xx01zvns2b_c2_elabs_scored,openbind_xx01zvns2b_c1_elabs_filtered,openbind_xx01zvns2b_c2_elabs_scored_top80percent,BulkDock Fragalysis export,openbind_xx01zvns2b_c2_elabs_scored_top80percent_despaghettified

>  <subsites>  (136) 
1 - Z4590/B/203/1

>  <smiles>  (136) 
Cc1nc2c(C(=O)Nc3ccc4c(c3)C(=O)N([C@@H]3CCC(=O)NC3=O)C4=O)cc(Cl)cc2[nH]1

>  <HIPPO Pose ID>  (136) 
134393

>  <energy_score>  (136) 
-29.813508

>  <inchikey>  (136) 
NNSIGPMFMVXMAU-MRXNPFEDSA-N

>  <gnina_score_min>  (136) 
6.346

>  <gnina_score>  (136) 
6.33

>  <ref_mols>  (136) 
Z3502a

>  <HIPPO Compound ID>  (136) 
190930

>  <distance_score>  (136) 
0.949313

>  <rmsd(smina/fragmenstein)>  (136) 
1.949

>  <ref_pdb>  (136) 
Z3502a

>  <inspiration_score>  (136) 
None

$$$$
P134394
     RDKit          3D

 33 37  0  0  0  0  0  0  0  0999 V2000
   -2.9020    5.7701  -17.1819 C   0  0  0  0  0  0  0  0  0  0  0  0
   -4.3463    5.4944  -17.0199 C   0  0  0  0  0  0  0  0  0  0  0  0
   -5.0372    5.5636  -15.9019 N   0  0  0  0  0  0  0  0  0  0  0  0
   -6.3229    5.1951  -16.2271 C   0  0  0  0  0  0  0  0  0  0  0  0
   -7.4897    5.0814  -15.4570 C   0  0  0  0  0  0  0  0  0  0  0  0
   -7.5613    5.6149  -14.0947 C   0  0  0  0  0  0  0  0  0  0  0  0
   -7.4178    6.7657  -13.9516 O   0  0  0  0  0  0  0  0  0  0  0  0
   -7.9272    4.5137  -13.0691 N   0  0  0  0  0  0  0  0  0  0  0  0
   -8.0929    4.5831  -11.6897 C   0  0  0  0  0  0  0  0  0  0  0  0
   -8.0340    5.8426  -11.0594 C   0  0  0  0  0  0  0  0  0  0  0  0
   -8.2424    5.9728   -9.6929 C   0  0  0  0  0  0  0  0  0  0  0  0
   -8.4803    4.8155   -8.9914 C   0  0  0  0  0  0  0  0  0  0  0  0
   -8.5144    3.5490   -9.5789 C   0  0  0  0  0  0  0  0  0  0  0  0
   -8.3428    3.4174  -10.9486 C   0  0  0  0  0  0  0  0  0  0  0  0
   -8.7261    2.5194   -8.5146 C   0  0  0  0  0  0  0  0  0  0  0  0
   -8.6540    3.3347   -7.2983 N   0  0  0  0  0  0  0  0  0  0  0  0
   -8.7507    2.7763   -5.9634 C   0  0  2  0  0  0  0  0  0  0  0  0
  -10.1865    2.6203   -5.5210 C   0  0  0  0  0  0  0  0  0  0  0  0
  -10.6336    3.7619   -4.6615 C   0  0  0  0  0  0  0  0  0  0  0  0
   -9.7067    4.1144   -3.5327 C   0  0  0  0  0  0  0  0  0  0  0  0
  -10.1485    4.5945   -2.4849 O   0  0  0  0  0  0  0  0  0  0  0  0
   -8.3587    3.9663   -3.7566 N   0  0  0  0  0  0  0  0  0  0  0  0
   -7.4783    4.5836   -2.7800 C   0  0  0  0  0  0  0  0  0  0  0  0
   -7.8166    3.5500   -4.9630 C   0  0  0  0  0  0  0  0  0  0  0  0
   -6.6287    3.8132   -5.2012 O   0  0  0  0  0  0  0  0  0  0  0  0
   -8.6851    4.6810   -7.5543 C   0  0  0  0  0  0  0  0  0  0  0  0
   -8.8317    5.6008   -6.7713 O   0  0  0  0  0  0  0  0  0  0  0  0
   -8.6839    4.6589  -16.0513 C   0  0  0  0  0  0  0  0  0  0  0  0
   -8.7241    4.4020  -17.4147 C   0  0  0  0  0  0  0  0  0  0  0  0
  -10.2344    4.0457  -18.1354 Cl  0  0  0  0  0  0  0  0  0  0  0  0
   -7.5892    4.5104  -18.2180 C   0  0  0  0  0  0  0  0  0  0  0  0
   -6.4095    4.9058  -17.5860 C   0  0  0  0  0  0  0  0  0  0  0  0
   -5.1481    5.1270  -18.0705 N   0  0  0  0  0  0  0  0  0  0  0  0
  1  2  1  0
  2  3  2  0
  3  4  1  0
  4  5  2  0
  5  6  1  0
  6  7  2  0
  6  8  1  0
  8  9  1  0
  9 10  2  0
 10 11  1  0
 11 12  2  0
 12 13  1  0
 13 14  2  0
 13 15  1  0
 15 16  1  0
 17 16  1  6
 17 18  1  0
 18 19  1  0
 19 20  1  0
 20 21  2  0
 20 22  1  0
 22 23  1  0
 22 24  1  0
 24 25  2  0
 16 26  1  0
 26 27  2  0
  5 28  1  0
 28 29  2  0
 29 30  1  0
 29 31  1  0
 31 32  2  0
 32 33  1  0
 33  2  1  0
 32  4  1  0
 14  9  1  0
 24 17  1  0
 26 12  1  0
M  END
>  <name>  (137) 
P134394

>  <alias>  (137) 
None

>  <smina_score_min>  (137) 
-9.274

>  <exports>  (137) 
['/opt/xchem-fragalysis-2/maxwin/BulkDock/OUTPUTS/openbind_xx01zvns2b_c2_elabs_1LOUTNY.sdf', '/opt/xchem-fragalysis-2/maxwin/BulkDock/OUTPUTS/openbind_xx01zvns2b_c2_elabs_1LSYIIV.sdf', '/opt/xchem-fragalysis-2/maxwin/openbind-hippo/xx01zvns2b/cycle_02/gnina/openbind_xx01zvns2b_c2_elabs_scored_6.2plus_products.sdf']

>  <tags>  (137) 
syndirella_placed,openbind_xx01zvns2b_c2_elabs,openbind_xx01zvns2b_c2_elabs_scored_6.2plus,syndirella_product,openbind_xx01zvns2b_c2_elabs_scored,openbind_xx01zvns2b_c1_elabs_filtered,openbind_xx01zvns2b_c2_elabs_scored_top80percent,BulkDock Fragalysis export,openbind_xx01zvns2b_c2_elabs_scored_top80percent_despaghettified

>  <subsites>  (137) 
1 - Z4590/B/203/1

>  <smiles>  (137) 
Cc1nc2c(C(=O)Nc3ccc4c(c3)CN([C@@H]3CCC(=O)N(C)C3=O)C4=O)cc(Cl)cc2[nH]1

>  <HIPPO Pose ID>  (137) 
134394

>  <energy_score>  (137) 
-38.666432

>  <inchikey>  (137) 
BZLFERCMROHCMW-GOSISDBHSA-N

>  <gnina_score_min>  (137) 
6.453

>  <gnina_score>  (137) 
6.224

>  <ref_mols>  (137) 
Z3502a

>  <HIPPO Compound ID>  (137) 
190931

>  <distance_score>  (137) 
0.655403

>  <rmsd(smina/fragmenstein)>  (137) 
1.271

>  <ref_pdb>  (137) 
Z3502a

>  <inspiration_score>  (137) 
None

$$$$
P134396
     RDKit          3D

 33 37  0  0  0  0  0  0  0  0999 V2000
   -2.9578    5.7087  -17.3355 C   0  0  0  0  0  0  0  0  0  0  0  0
   -4.3970    5.4336  -17.1356 C   0  0  0  0  0  0  0  0  0  0  0  0
   -5.0529    5.4921  -15.9963 N   0  0  0  0  0  0  0  0  0  0  0  0
   -6.3526    5.1405  -16.2878 C   0  0  0  0  0  0  0  0  0  0  0  0
   -7.4987    5.0356  -15.4816 C   0  0  0  0  0  0  0  0  0  0  0  0
   -7.4914    5.5607  -14.1124 C   0  0  0  0  0  0  0  0  0  0  0  0
   -7.2007    6.6847  -13.9718 O   0  0  0  0  0  0  0  0  0  0  0  0
   -7.9844    4.5128  -13.0798 N   0  0  0  0  0  0  0  0  0  0  0  0
   -8.1248    4.6026  -11.6980 C   0  0  0  0  0  0  0  0  0  0  0  0
   -7.7919    5.8214  -11.0730 C   0  0  0  0  0  0  0  0  0  0  0  0
   -7.8564    5.9752   -9.6948 C   0  0  0  0  0  0  0  0  0  0  0  0
   -8.2601    4.8884   -8.9569 C   0  0  0  0  0  0  0  0  0  0  0  0
   -8.6283    3.6898   -9.5685 C   0  0  0  0  0  0  0  0  0  0  0  0
   -8.5682    3.5122  -10.9419 C   0  0  0  0  0  0  0  0  0  0  0  0
   -9.0167    2.7623   -8.4944 C   0  0  0  0  0  0  0  0  0  0  0  0
   -9.4933    1.6595   -8.6644 O   0  0  0  0  0  0  0  0  0  0  0  0
   -8.7745    3.4230   -7.2910 N   0  0  0  0  0  0  0  0  0  0  0  0
   -8.7796    2.7598   -5.9897 C   0  0  2  0  0  0  0  0  0  0  0  0
  -10.2037    2.5129   -5.5330 C   0  0  0  0  0  0  0  0  0  0  0  0
  -10.7056    3.6477   -4.6951 C   0  0  0  0  0  0  0  0  0  0  0  0
   -9.8092    4.0354   -3.5523 C   0  0  0  0  0  0  0  0  0  0  0  0
  -10.2707    4.5503   -2.5313 O   0  0  0  0  0  0  0  0  0  0  0  0
   -8.4562    3.9016   -3.7403 N   0  0  0  0  0  0  0  0  0  0  0  0
   -7.6100    4.5022   -2.7205 C   0  0  0  0  0  0  0  0  0  0  0  0
   -7.8769    3.4792   -4.9236 C   0  0  0  0  0  0  0  0  0  0  0  0
   -6.6859    3.7639   -5.1210 O   0  0  0  0  0  0  0  0  0  0  0  0
   -8.3038    4.7697   -7.4817 C   0  0  0  0  0  0  0  0  0  0  0  0
   -8.7147    4.6373  -16.0452 C   0  0  0  0  0  0  0  0  0  0  0  0
   -8.7949    4.3904  -17.4100 C   0  0  0  0  0  0  0  0  0  0  0  0
  -10.3290    4.0730  -18.0987 Cl  0  0  0  0  0  0  0  0  0  0  0  0
   -7.6809    4.4838  -18.2439 C   0  0  0  0  0  0  0  0  0  0  0  0
   -6.4801    4.8635  -17.6449 C   0  0  0  0  0  0  0  0  0  0  0  0
   -5.2314    5.0778  -18.1654 N   0  0  0  0  0  0  0  0  0  0  0  0
  1  2  1  0
  2  3  2  0
  3  4  1  0
  4  5  2  0
  5  6  1  0
  6  7  2  0
  6  8  1  0
  8  9  1  0
  9 10  2  0
 10 11  1  0
 11 12  2  0
 12 13  1  0
 13 14  2  0
 13 15  1  0
 15 16  2  0
 15 17  1  0
 18 17  1  6
 18 19  1  0
 19 20  1  0
 20 21  1  0
 21 22  2  0
 21 23  1  0
 23 24  1  0
 23 25  1  0
 25 26  2  0
 17 27  1  0
  5 28  1  0
 28 29  2  0
 29 30  1  0
 29 31  1  0
 31 32  2  0
 32 33  1  0
 33  2  1  0
 32  4  1  0
 14  9  1  0
 25 18  1  0
 27 12  1  0
M  END
>  <name>  (138) 
P134396

>  <alias>  (138) 
None

>  <smina_score_min>  (138) 
-9.329

>  <exports>  (138) 
['/opt/xchem-fragalysis-2/maxwin/BulkDock/OUTPUTS/openbind_xx01zvns2b_c2_elabs_1LOUTNY.sdf', '/opt/xchem-fragalysis-2/maxwin/BulkDock/OUTPUTS/openbind_xx01zvns2b_c2_elabs_1LSYIIV.sdf', '/opt/xchem-fragalysis-2/maxwin/openbind-hippo/xx01zvns2b/cycle_02/gnina/openbind_xx01zvns2b_c2_elabs_scored_6.2plus_products.sdf']

>  <tags>  (138) 
syndirella_placed,openbind_xx01zvns2b_c2_elabs,openbind_xx01zvns2b_c2_elabs_scored_6.2plus,syndirella_product,openbind_xx01zvns2b_c2_elabs_scored,openbind_xx01zvns2b_c1_elabs_filtered,openbind_xx01zvns2b_c2_elabs_scored_top80percent,BulkDock Fragalysis export,openbind_xx01zvns2b_c2_elabs_scored_top80percent_despaghettified

>  <subsites>  (138) 
1 - Z4590/B/203/1

>  <smiles>  (138) 
Cc1nc2c(C(=O)Nc3ccc4c(c3)C(=O)N([C@@H]3CCC(=O)N(C)C3=O)C4)cc(Cl)cc2[nH]1

>  <HIPPO Pose ID>  (138) 
134396

>  <energy_score>  (138) 
-37.300298

>  <inchikey>  (138) 
NQMFKVJMSBAPQB-GOSISDBHSA-N

>  <gnina_score_min>  (138) 
6.244

>  <gnina_score>  (138) 
6.204

>  <ref_mols>  (138) 
Z3502a

>  <HIPPO Compound ID>  (138) 
190932

>  <distance_score>  (138) 
0.693841

>  <rmsd(smina/fragmenstein)>  (138) 
0.97

>  <ref_pdb>  (138) 
Z3502a

>  <inspiration_score>  (138) 
None

$$$$
P139106
     RDKit          3D

 25 28  0  0  0  0  0  0  0  0999 V2000
  -10.2508    3.0359   -5.1261 C   0  0  0  0  0  0  0  0  0  0  0  0
  -10.1101    2.3137   -6.4600 C   0  0  0  0  0  0  0  0  0  0  0  0
   -8.9031    2.6569   -7.1983 N   0  0  0  0  0  0  0  0  0  0  0  0
   -8.6461    4.0934   -7.3614 C   0  0  0  0  0  0  0  0  0  0  0  0
   -8.3760    4.3083   -8.8095 C   0  0  0  0  0  0  0  0  0  0  0  0
   -8.0708    5.4895   -9.4566 C   0  0  0  0  0  0  0  0  0  0  0  0
   -7.8985    5.4554  -10.8397 C   0  0  0  0  0  0  0  0  0  0  0  0
   -8.0265    4.2541  -11.5560 C   0  0  0  0  0  0  0  0  0  0  0  0
   -7.8696    4.2508  -12.9431 N   0  0  0  0  0  0  0  0  0  0  0  0
   -7.4423    5.3839  -13.9103 C   0  0  0  0  0  0  0  0  0  0  0  0
   -7.2301    6.5150  -13.7054 O   0  0  0  0  0  0  0  0  0  0  0  0
   -7.4077    4.9164  -15.3078 C   0  0  0  0  0  0  0  0  0  0  0  0
   -8.5965    4.4868  -15.9187 C   0  0  0  0  0  0  0  0  0  0  0  0
   -8.6306    4.2675  -17.2945 C   0  0  0  0  0  0  0  0  0  0  0  0
  -10.1210    3.8861  -18.0554 Cl  0  0  0  0  0  0  0  0  0  0  0  0
   -7.4993    4.4316  -18.0946 C   0  0  0  0  0  0  0  0  0  0  0  0
   -6.3283    4.8284  -17.4500 C   0  0  0  0  0  0  0  0  0  0  0  0
   -5.0707    5.0789  -17.9309 N   0  0  0  0  0  0  0  0  0  0  0  0
   -4.2759    5.4419  -16.8740 C   0  0  0  0  0  0  0  0  0  0  0  0
   -2.8456    5.7813  -17.0469 C   0  0  0  0  0  0  0  0  0  0  0  0
   -4.9618    5.4537  -15.7498 N   0  0  0  0  0  0  0  0  0  0  0  0
   -6.2445    5.0740  -16.0823 C   0  0  0  0  0  0  0  0  0  0  0  0
   -8.3332    3.0646  -10.8827 C   0  0  0  0  0  0  0  0  0  0  0  0
   -8.5069    3.1121   -9.5046 C   0  0  0  0  0  0  0  0  0  0  0  0
   -8.8636    2.0190   -8.5439 C   0  0  0  0  0  0  0  0  0  0  0  0
  1  2  1  0
  2  3  1  0
  3  4  1  0
  4  5  1  0
  5  6  2  0
  6  7  1  0
  7  8  2  0
  8  9  1  0
  9 10  1  0
 10 11  2  0
 10 12  1  0
 12 13  2  0
 13 14  1  0
 14 15  1  0
 14 16  2  0
 16 17  1  0
 17 18  1  0
 18 19  1  0
 19 20  1  0
 19 21  2  0
 21 22  1  0
  8 23  1  0
 23 24  2  0
 24 25  1  0
 25  3  1  0
 24  5  1  0
 22 12  1  0
 22 17  2  0
M  END
>  <name>  (139) 
P139106

>  <alias>  (139) 
None

>  <smina_score_min>  (139) 
-8.817

>  <exports>  (139) 
['/opt/xchem-fragalysis-2/maxwin/BulkDock/OUTPUTS/openbind_xx01zvns2b_c2_elabs_1LOUTNY.sdf', '/opt/xchem-fragalysis-2/maxwin/BulkDock/OUTPUTS/openbind_xx01zvns2b_c2_elabs_1LSYIIV.sdf', '/opt/xchem-fragalysis-2/maxwin/openbind-hippo/xx01zvns2b/cycle_02/gnina/openbind_xx01zvns2b_c2_elabs_scored_6.2plus_products.sdf']

>  <tags>  (139) 
syndirella_placed,openbind_xx01zvns2b_c2_elabs,openbind_xx01zvns2b_c2_elabs_scored_6.2plus,syndirella_product,openbind_xx01zvns2b_c2_elabs_scored,openbind_xx01zvns2b_c1_elabs_filtered,openbind_xx01zvns2b_c2_elabs_scored_top80percent,BulkDock Fragalysis export,openbind_xx01zvns2b_c2_elabs_scored_top80percent_despaghettified

>  <subsites>  (139) 
1 - Z4590/B/203/1

>  <smiles>  (139) 
CCN1Cc2ccc(NC(=O)c3cc(Cl)cc4[nH]c(C)nc34)cc2C1

>  <HIPPO Pose ID>  (139) 
139106

>  <energy_score>  (139) 
-26.5601

>  <inchikey>  (139) 
KLURPVMJACZEHV-UHFFFAOYSA-N

>  <gnina_score_min>  (139) 
6.235

>  <gnina_score>  (139) 
6.107

>  <ref_mols>  (139) 
Z4963a

>  <HIPPO Compound ID>  (139) 
190889

>  <distance_score>  (139) 
0.564899

>  <rmsd(smina/fragmenstein)>  (139) 
0.434

>  <ref_pdb>  (139) 
Z4963a

>  <inspiration_score>  (139) 
None

$$$$
P139114
     RDKit          3D

 27 30  0  0  0  0  0  0  0  0999 V2000
   -8.9967    4.1196   -2.9001 C   0  0  0  0  0  0  0  0  0  0  0  0
   -8.7664    3.8798   -4.3844 C   0  0  0  0  0  0  0  0  0  0  0  0
   -9.9048    3.0796   -5.0349 C   0  0  0  0  0  0  0  0  0  0  0  0
   -9.4737    2.2501   -6.2616 C   0  0  0  0  0  0  0  0  0  0  0  0
   -9.4529    3.0034   -7.4996 N   0  0  0  0  0  0  0  0  0  0  0  0
   -8.5858    4.1842   -7.5062 C   0  0  0  0  0  0  0  0  0  0  0  0
   -8.3099    4.4029   -8.9524 C   0  0  0  0  0  0  0  0  0  0  0  0
   -7.8783    5.5476   -9.5849 C   0  0  0  0  0  0  0  0  0  0  0  0
   -7.7229    5.5001  -10.9668 C   0  0  0  0  0  0  0  0  0  0  0  0
   -7.9750    4.3185  -11.6859 C   0  0  0  0  0  0  0  0  0  0  0  0
   -7.8340    4.3104  -13.0711 N   0  0  0  0  0  0  0  0  0  0  0  0
   -7.3374    5.4132  -14.0376 C   0  0  0  0  0  0  0  0  0  0  0  0
   -7.0424    6.5246  -13.8308 O   0  0  0  0  0  0  0  0  0  0  0  0
   -7.3543    4.9420  -15.4315 C   0  0  0  0  0  0  0  0  0  0  0  0
   -8.5645    4.5150  -16.0009 C   0  0  0  0  0  0  0  0  0  0  0  0
   -8.6358    4.2691  -17.3693 C   0  0  0  0  0  0  0  0  0  0  0  0
  -10.1498    3.8896  -18.0807 Cl  0  0  0  0  0  0  0  0  0  0  0  0
   -7.5230    4.4049  -18.1996 C   0  0  0  0  0  0  0  0  0  0  0  0
   -6.3325    4.8074  -17.5953 C   0  0  0  0  0  0  0  0  0  0  0  0
   -5.0870    5.0433  -18.1135 N   0  0  0  0  0  0  0  0  0  0  0  0
   -4.2599    5.4106  -17.0829 C   0  0  0  0  0  0  0  0  0  0  0  0
   -2.8304    5.7271  -17.2997 C   0  0  0  0  0  0  0  0  0  0  0  0
   -4.9155    5.4456  -15.9414 N   0  0  0  0  0  0  0  0  0  0  0  0
   -6.2101    5.0755  -16.2359 C   0  0  0  0  0  0  0  0  0  0  0  0
   -8.3948    3.1581  -11.0247 C   0  0  0  0  0  0  0  0  0  0  0  0
   -8.5739    3.2248   -9.6537 C   0  0  0  0  0  0  0  0  0  0  0  0
   -9.0600    2.1928   -8.6801 C   0  0  0  0  0  0  0  0  0  0  0  0
  1  2  1  0
  2  3  1  0
  3  4  1  0
  4  5  1  0
  5  6  1  0
  6  7  1  0
  7  8  2  0
  8  9  1  0
  9 10  2  0
 10 11  1  0
 11 12  1  0
 12 13  2  0
 12 14  1  0
 14 15  2  0
 15 16  1  0
 16 17  1  0
 16 18  2  0
 18 19  1  0
 19 20  1  0
 20 21  1  0
 21 22  1  0
 21 23  2  0
 23 24  1  0
 10 25  1  0
 25 26  2  0
 26 27  1  0
 27  5  1  0
 26  7  1  0
 24 14  1  0
 24 19  2  0
M  END
>  <name>  (140) 
P139114

>  <alias>  (140) 
None

>  <smina_score_min>  (140) 
-8.691

>  <exports>  (140) 
['/opt/xchem-fragalysis-2/maxwin/BulkDock/OUTPUTS/openbind_xx01zvns2b_c2_elabs_1LOUTNY.sdf', '/opt/xchem-fragalysis-2/maxwin/BulkDock/OUTPUTS/openbind_xx01zvns2b_c2_elabs_1LSYIIV.sdf', '/opt/xchem-fragalysis-2/maxwin/openbind-hippo/xx01zvns2b/cycle_02/gnina/openbind_xx01zvns2b_c2_elabs_scored_6.2plus_products.sdf']

>  <tags>  (140) 
syndirella_placed,openbind_xx01zvns2b_c2_elabs,openbind_xx01zvns2b_c2_elabs_scored_6.2plus,syndirella_product,openbind_xx01zvns2b_c2_elabs_scored,openbind_xx01zvns2b_c1_elabs_filtered,openbind_xx01zvns2b_c2_elabs_scored_top80percent,BulkDock Fragalysis export,openbind_xx01zvns2b_c2_elabs_scored_top80percent_despaghettified

>  <subsites>  (140) 
1 - Z4590/B/203/1

>  <smiles>  (140) 
CCCCN1Cc2ccc(NC(=O)c3cc(Cl)cc4[nH]c(C)nc34)cc2C1

>  <HIPPO Pose ID>  (140) 
139114

>  <energy_score>  (140) 
-32.379782

>  <inchikey>  (140) 
AMJAVXIGMUPKMR-UHFFFAOYSA-N

>  <gnina_score_min>  (140) 
6.343

>  <gnina_score>  (140) 
6.141

>  <ref_mols>  (140) 
Z4963a

>  <HIPPO Compound ID>  (140) 
190899

>  <distance_score>  (140) 
0.685526

>  <rmsd(smina/fragmenstein)>  (140) 
0.581

>  <ref_pdb>  (140) 
Z4963a

>  <inspiration_score>  (140) 
None

$$$$
P139133
     RDKit          3D

 32 36  0  0  0  0  0  0  0  0999 V2000
   -2.7432    5.6637  -17.7622 C   0  0  0  0  0  0  0  0  0  0  0  0
   -4.1711    5.3933  -17.4797 C   0  0  0  0  0  0  0  0  0  0  0  0
   -4.7857    5.4994  -16.3197 N   0  0  0  0  0  0  0  0  0  0  0  0
   -6.0915    5.1352  -16.5568 C   0  0  0  0  0  0  0  0  0  0  0  0
   -7.2095    5.0629  -15.7209 C   0  0  0  0  0  0  0  0  0  0  0  0
   -7.1516    5.5879  -14.3595 C   0  0  0  0  0  0  0  0  0  0  0  0
   -6.9410    6.7203  -14.1814 O   0  0  0  0  0  0  0  0  0  0  0  0
   -7.5004    4.4689  -13.3623 N   0  0  0  0  0  0  0  0  0  0  0  0
   -7.7465    4.5219  -12.0049 C   0  0  0  0  0  0  0  0  0  0  0  0
   -7.7724    5.7655  -11.3438 C   0  0  0  0  0  0  0  0  0  0  0  0
   -8.0749    5.8441   -9.9934 C   0  0  0  0  0  0  0  0  0  0  0  0
   -8.3334    4.6551   -9.3559 C   0  0  0  0  0  0  0  0  0  0  0  0
   -8.2942    3.4179   -9.9875 C   0  0  0  0  0  0  0  0  0  0  0  0
   -8.0114    3.3295  -11.3305 C   0  0  0  0  0  0  0  0  0  0  0  0
   -8.6208    2.3431   -9.0212 C   0  0  0  0  0  0  0  0  0  0  0  0
   -8.8156    3.0980   -7.7820 N   0  0  0  0  0  0  0  0  0  0  0  0
   -8.8901    2.4027   -6.5143 C   0  0  1  0  0  0  0  0  0  0  0  0
   -8.9770    3.3039   -5.2854 C   0  0  0  0  0  0  0  0  0  0  0  0
  -10.4154    3.5917   -4.9627 C   0  0  0  0  0  0  0  0  0  0  0  0
  -11.2293    2.3243   -4.9042 C   0  0  0  0  0  0  0  0  0  0  0  0
  -12.3303    2.2602   -4.3734 O   0  0  0  0  0  0  0  0  0  0  0  0
  -10.7613    1.2259   -5.5132 N   0  0  0  0  0  0  0  0  0  0  0  0
   -9.9673    1.3297   -6.5928 C   0  0  0  0  0  0  0  0  0  0  0  0
  -10.1300    0.5720   -7.5428 O   0  0  0  0  0  0  0  0  0  0  0  0
   -8.6795    4.4562   -7.9622 C   0  0  0  0  0  0  0  0  0  0  0  0
   -8.8022    5.3833   -7.1834 O   0  0  0  0  0  0  0  0  0  0  0  0
   -8.4441    4.6057  -16.2061 C   0  0  0  0  0  0  0  0  0  0  0  0
   -8.5665    4.2726  -17.5473 C   0  0  0  0  0  0  0  0  0  0  0  0
  -10.1101    3.8557  -18.1616 Cl  0  0  0  0  0  0  0  0  0  0  0  0
   -7.4811    4.3483  -18.4205 C   0  0  0  0  0  0  0  0  0  0  0  0
   -6.2661    4.7868  -17.8896 C   0  0  0  0  0  0  0  0  0  0  0  0
   -5.0411    4.9948  -18.4640 N   0  0  0  0  0  0  0  0  0  0  0  0
  1  2  1  0
  2  3  2  0
  3  4  1  0
  4  5  2  0
  5  6  1  0
  6  7  2  0
  6  8  1  0
  8  9  1  0
  9 10  2  0
 10 11  1  0
 11 12  2  0
 12 13  1  0
 13 14  2  0
 13 15  1  0
 15 16  1  0
 17 16  1  6
 17 18  1  0
 18 19  1  0
 19 20  1  0
 20 21  2  0
 20 22  1  0
 22 23  1  0
 23 24  2  0
 16 25  1  0
 25 26  2  0
  5 27  1  0
 27 28  2  0
 28 29  1  0
 28 30  1  0
 30 31  2  0
 31 32  1  0
 32  2  1  0
 31  4  1  0
 14  9  1  0
 23 17  1  0
 25 12  1  0
M  END
>  <name>  (141) 
P139133

>  <alias>  (141) 
None

>  <smina_score_min>  (141) 
-9.651

>  <exports>  (141) 
['/opt/xchem-fragalysis-2/maxwin/BulkDock/OUTPUTS/openbind_xx01zvns2b_c2_elabs_1LOUTNY.sdf', '/opt/xchem-fragalysis-2/maxwin/BulkDock/OUTPUTS/openbind_xx01zvns2b_c2_elabs_1LSYIIV.sdf', '/opt/xchem-fragalysis-2/maxwin/openbind-hippo/xx01zvns2b/cycle_02/gnina/openbind_xx01zvns2b_c2_elabs_scored_6.2plus_products.sdf']

>  <tags>  (141) 
syndirella_placed,openbind_xx01zvns2b_c2_elabs,openbind_xx01zvns2b_c2_elabs_scored_6.2plus,syndirella_product,openbind_xx01zvns2b_c2_elabs_scored,openbind_xx01zvns2b_c1_elabs_filtered,openbind_xx01zvns2b_c2_elabs_scored_top80percent,BulkDock Fragalysis export,openbind_xx01zvns2b_c2_elabs_scored_top80percent_despaghettified

>  <subsites>  (141) 
1 - Z4590/B/203/1

>  <smiles>  (141) 
Cc1nc2c(C(=O)Nc3ccc4c(c3)CN([C@H]3CCC(=O)NC3=O)C4=O)cc(Cl)cc2[nH]1

>  <HIPPO Pose ID>  (141) 
139133

>  <energy_score>  (141) 
-31.273521

>  <inchikey>  (141) 
DMKCCXVEGSZPPN-KRWDZBQOSA-N

>  <gnina_score_min>  (141) 
6.508

>  <gnina_score>  (141) 
6.507

>  <ref_mols>  (141) 
Z4963a

>  <HIPPO Compound ID>  (141) 
190921

>  <distance_score>  (141) 
1.000565

>  <rmsd(smina/fragmenstein)>  (141) 
0.792

>  <ref_pdb>  (141) 
Z4963a

>  <inspiration_score>  (141) 
None

$$$$
P139841
     RDKit          3D

 36 39  0  0  0  0  0  0  0  0999 V2000
  -11.2056    2.8772   -5.2707 C   0  0  0  0  0  0  0  0  0  0  0  0
  -10.0678    2.9886   -6.1220 N   0  0  0  0  0  0  0  0  0  0  0  0
   -9.4411    1.8993   -6.6131 C   0  0  0  0  0  0  0  0  0  0  0  0
   -9.8627    0.7596   -6.5991 O   0  0  0  0  0  0  0  0  0  0  0  0
   -8.2686    2.3079   -7.1736 N   0  0  0  0  0  0  0  0  0  0  0  0
   -8.2542    3.7270   -7.4415 C   0  0  1  0  0  0  0  0  0  0  0  0
   -7.0259    4.4016   -6.8180 C   0  0  0  0  0  0  0  0  0  0  0  0
   -8.3718    3.9817   -8.9477 C   0  0  0  0  0  0  0  0  0  0  0  0
   -8.1217    5.2458   -9.5068 C   0  0  0  0  0  0  0  0  0  0  0  0
   -8.0314    5.4220  -10.8979 C   0  0  0  0  0  0  0  0  0  0  0  0
   -8.2162    4.3424  -11.7543 C   0  0  0  0  0  0  0  0  0  0  0  0
   -8.0642    4.4308  -13.1344 N   0  0  0  0  0  0  0  0  0  0  0  0
   -7.4778    5.5610  -14.0090 C   0  0  0  0  0  0  0  0  0  0  0  0
   -7.1012    6.6260  -13.7162 O   0  0  0  0  0  0  0  0  0  0  0  0
   -7.4625    5.1567  -15.4404 C   0  0  0  0  0  0  0  0  0  0  0  0
   -8.6292    4.6645  -16.0289 C   0  0  0  0  0  0  0  0  0  0  0  0
   -8.6524    4.4191  -17.3957 C   0  0  0  0  0  0  0  0  0  0  0  0
  -10.1098    3.9342  -18.1510 Cl  0  0  0  0  0  0  0  0  0  0  0  0
   -7.5211    4.6294  -18.1718 C   0  0  0  0  0  0  0  0  0  0  0  0
   -6.3439    5.0802  -17.5746 C   0  0  0  0  0  0  0  0  0  0  0  0
   -5.2360    5.2240  -18.3978 N   0  0  0  0  0  0  0  0  0  0  0  0
   -3.7649    5.4294  -18.0533 C   0  0  0  0  0  0  0  0  0  0  0  0
   -3.2468    5.5888  -17.0265 O   0  0  0  0  0  0  0  0  0  0  0  0
   -3.1345    5.3593  -19.2483 O   0  0  0  0  0  0  0  0  0  0  0  0
   -1.7090    5.4655  -19.2136 C   0  0  0  0  0  0  0  0  0  0  0  0
   -1.2018    5.7948  -20.5981 C   0  0  0  0  0  0  0  0  0  0  0  0
   -1.9807    5.5870  -21.7473 C   0  0  0  0  0  0  0  0  0  0  0  0
   -1.4810    5.9002  -23.0111 C   0  0  0  0  0  0  0  0  0  0  0  0
   -0.1852    6.3905  -23.1467 C   0  0  0  0  0  0  0  0  0  0  0  0
    0.6080    6.5802  -22.0171 C   0  0  0  0  0  0  0  0  0  0  0  0
    0.1025    6.2868  -20.7499 C   0  0  0  0  0  0  0  0  0  0  0  0
   -6.3117    5.3617  -16.2090 C   0  0  0  0  0  0  0  0  0  0  0  0
   -8.5498    3.1039  -11.2224 C   0  0  0  0  0  0  0  0  0  0  0  0
   -8.6320    2.9254   -9.8426 C   0  0  0  0  0  0  0  0  0  0  0  0
   -9.4860    4.1276   -6.6019 C   0  0  0  0  0  0  0  0  0  0  0  0
   -9.8660    5.2735   -6.3850 O   0  0  0  0  0  0  0  0  0  0  0  0
  1  2  1  0
  2  3  1  0
  3  4  2  0
  3  5  1  0
  5  6  1  0
  6  7  1  1
  6  8  1  0
  8  9  2  0
  9 10  1  0
 10 11  2  0
 11 12  1  0
 12 13  1  0
 13 14  2  0
 13 15  1  0
 15 16  2  0
 16 17  1  0
 17 18  1  0
 17 19  2  0
 19 20  1  0
 20 21  1  0
 21 22  1  0
 22 23  2  0
 22 24  1  0
 24 25  1  0
 25 26  1  0
 26 27  2  0
 27 28  1  0
 28 29  2  0
 29 30  1  0
 30 31  2  0
 20 32  2  0
 11 33  1  0
 33 34  2  0
  6 35  1  0
 35 36  2  0
 35  2  1  0
 34  8  1  0
 32 15  1  0
 31 26  1  0
M  END
>  <name>  (142) 
P139841

>  <alias>  (142) 
None

>  <smina_score_min>  (142) 
-8.691

>  <exports>  (142) 
['/opt/xchem-fragalysis-2/maxwin/BulkDock/OUTPUTS/openbind_xx01zvns2b_c2_elabs_1LOUTNY.sdf', '/opt/xchem-fragalysis-2/maxwin/BulkDock/OUTPUTS/openbind_xx01zvns2b_c2_elabs_1LSYIIV.sdf', '/opt/xchem-fragalysis-2/maxwin/openbind-hippo/xx01zvns2b/cycle_02/gnina/openbind_xx01zvns2b_c2_elabs_scored_6.2plus_products.sdf']

>  <tags>  (142) 
syndirella_placed,openbind_xx01zvns2b_c2_elabs,openbind_xx01zvns2b_c2_elabs_scored_6.2plus,syndirella_product,openbind_xx01zvns2b_c2_elabs_scored,openbind_xx01zvns2b_c2_elabs_scored_top80percent,BulkDock Fragalysis export,openbind_xx01zvns2b_c2_elabs_scored_top80percent_despaghettified

>  <subsites>  (142) 
1 - Z4590/B/203/1

>  <smiles>  (142) 
CN1C(=O)N[C@@](C)(c2ccc(NC(=O)c3cc(Cl)cc(NC(=O)OCc4ccccc4)c3)cc2)C1=O

>  <HIPPO Pose ID>  (142) 
139841

>  <energy_score>  (142) 
-19.759974

>  <inchikey>  (142) 
RZRZTVRUPASIOZ-SANMLTNESA-N

>  <gnina_score_min>  (142) 
6.286

>  <gnina_score>  (142) 
6.066

>  <ref_mols>  (142) 
Z3028a

>  <HIPPO Compound ID>  (142) 
198429

>  <distance_score>  (142) 
0.490318

>  <rmsd(smina/fragmenstein)>  (142) 
1.272

>  <ref_pdb>  (142) 
Z3028a

>  <inspiration_score>  (142) 
None

$$$$
P139869
     RDKit          3D

 38 41  0  0  0  0  0  0  0  0999 V2000
   -8.7838    9.1131   -3.4037 C   0  0  0  0  0  0  0  0  0  0  0  0
   -7.9747    7.8157   -3.4159 C   0  0  0  0  0  0  0  0  0  0  0  0
   -6.4715    8.0832   -3.5593 C   0  0  0  0  0  0  0  0  0  0  0  0
   -8.2143    7.0780   -2.0889 C   0  0  0  0  0  0  0  0  0  0  0  0
   -8.4463    6.8964   -4.4346 O   0  0  0  0  0  0  0  0  0  0  0  0
   -8.3052    7.1763   -5.7611 C   0  0  0  0  0  0  0  0  0  0  0  0
   -7.9482    8.1935   -6.1938 O   0  0  0  0  0  0  0  0  0  0  0  0
   -8.6207    5.8566   -6.4632 N   0  0  0  0  0  0  0  0  0  0  0  0
   -8.4793    5.4846   -7.7985 C   0  0  0  0  0  0  0  0  0  0  0  0
   -8.1364    6.3835   -8.8153 C   0  0  0  0  0  0  0  0  0  0  0  0
   -7.8542    5.9416  -10.1296 C   0  0  0  0  0  0  0  0  0  0  0  0
   -7.9279    4.5894  -10.4082 C   0  0  0  0  0  0  0  0  0  0  0  0
   -8.3186    3.7117   -9.3818 C   0  0  0  0  0  0  0  0  0  0  0  0
   -8.6078    4.1333   -8.0956 C   0  0  0  0  0  0  0  0  0  0  0  0
   -8.2025    2.2799   -9.7917 C   0  0  0  0  0  0  0  0  0  0  0  0
   -8.0596    2.4262  -11.2994 C   0  0  0  0  0  0  0  0  0  0  0  0
   -7.3813    3.7804  -11.5529 C   0  0  1  0  0  0  0  0  0  0  0  0
   -7.5516    4.1423  -12.9373 N   0  0  0  0  0  0  0  0  0  0  0  0
   -7.0124    5.3411  -13.7277 C   0  0  0  0  0  0  0  0  0  0  0  0
   -6.4084    6.2699  -13.3714 O   0  0  0  0  0  0  0  0  0  0  0  0
   -7.2625    5.1639  -15.1986 C   0  0  0  0  0  0  0  0  0  0  0  0
   -8.4773    4.7217  -15.7345 C   0  0  0  0  0  0  0  0  0  0  0  0
   -8.5819    4.5235  -17.1152 C   0  0  0  0  0  0  0  0  0  0  0  0
  -10.0611    4.0305  -17.8387 Cl  0  0  0  0  0  0  0  0  0  0  0  0
   -7.4967    4.7498  -17.9560 C   0  0  0  0  0  0  0  0  0  0  0  0
   -6.2785    5.1517  -17.4187 C   0  0  0  0  0  0  0  0  0  0  0  0
   -5.2028    5.2574  -18.2895 N   0  0  0  0  0  0  0  0  0  0  0  0
   -3.7232    5.5063  -18.0125 C   0  0  0  0  0  0  0  0  0  0  0  0
   -3.1718    5.7400  -17.0174 O   0  0  0  0  0  0  0  0  0  0  0  0
   -3.1302    5.3994  -19.2257 O   0  0  0  0  0  0  0  0  0  0  0  0
   -1.7048    5.5202  -19.2258 C   0  0  0  0  0  0  0  0  0  0  0  0
   -1.2192    5.8192  -20.6244 C   0  0  0  0  0  0  0  0  0  0  0  0
   -2.0216    5.6109  -21.7561 C   0  0  0  0  0  0  0  0  0  0  0  0
   -1.5385    5.9016  -23.0318 C   0  0  0  0  0  0  0  0  0  0  0  0
   -0.2370    6.3685  -23.1962 C   0  0  0  0  0  0  0  0  0  0  0  0
    0.5791    6.5579  -22.0833 C   0  0  0  0  0  0  0  0  0  0  0  0
    0.0906    6.2877  -20.8047 C   0  0  0  0  0  0  0  0  0  0  0  0
   -6.1634    5.3753  -16.0479 C   0  0  0  0  0  0  0  0  0  0  0  0
  1  2  1  0
  2  3  1  0
  2  4  1  0
  2  5  1  0
  5  6  1  0
  6  7  2  0
  6  8  1  0
  8  9  1  0
  9 10  2  0
 10 11  1  0
 11 12  2  0
 12 13  1  0
 13 14  2  0
 13 15  1  0
 15 16  1  0
 16 17  1  0
 17 18  1  6
 18 19  1  0
 19 20  2  0
 19 21  1  0
 21 22  2  0
 22 23  1  0
 23 24  1  0
 23 25  2  0
 25 26  1  0
 26 27  1  0
 27 28  1  0
 28 29  2  0
 28 30  1  0
 30 31  1  0
 31 32  1  0
 32 33  2  0
 33 34  1  0
 34 35  2  0
 35 36  1  0
 36 37  2  0
 26 38  2  0
 14  9  1  0
 38 21  1  0
 17 12  1  0
 37 32  1  0
M  END
>  <name>  (143) 
P139869

>  <alias>  (143) 
None

>  <smina_score_min>  (143) 
-8.245

>  <exports>  (143) 
['/opt/xchem-fragalysis-2/maxwin/BulkDock/OUTPUTS/openbind_xx01zvns2b_c2_elabs_1LOUTNY.sdf', '/opt/xchem-fragalysis-2/maxwin/BulkDock/OUTPUTS/openbind_xx01zvns2b_c2_elabs_1LSYIIV.sdf', '/opt/xchem-fragalysis-2/maxwin/openbind-hippo/xx01zvns2b/cycle_02/gnina/openbind_xx01zvns2b_c2_elabs_scored_6.2plus_products.sdf']

>  <tags>  (143) 
syndirella_placed,openbind_xx01zvns2b_c2_elabs,openbind_xx01zvns2b_c2_elabs_scored_6.2plus,syndirella_product,openbind_xx01zvns2b_c2_elabs_scored,openbind_xx01zvns2b_c2_elabs_scored_top80percent,BulkDock Fragalysis export,openbind_xx01zvns2b_c2_elabs_scored_top80percent_despaghettified

>  <subsites>  (143) 
1 - Z4590/B/203/1

>  <smiles>  (143) 
CC(C)(C)OC(=O)Nc1ccc2c(c1)CC[C@H]2NC(=O)c1cc(Cl)cc(NC(=O)OCc2ccccc2)c1

>  <HIPPO Pose ID>  (143) 
139869

>  <energy_score>  (143) 
-26.686837

>  <inchikey>  (143) 
XXXWEBQXXSWSRP-RUZDIDTESA-N

>  <gnina_score_min>  (143) 
6.357

>  <gnina_score>  (143) 
6.004

>  <ref_mols>  (143) 
Z3028a

>  <HIPPO Compound ID>  (143) 
198454

>  <distance_score>  (143) 
1.135091

>  <rmsd(smina/fragmenstein)>  (143) 
2.173

>  <ref_pdb>  (143) 
Z3028a

>  <inspiration_score>  (143) 
None

$$$$
P139871
     RDKit          3D

 39 43  0  0  0  0  0  0  0  0999 V2000
   -7.7520    2.3384  -11.6270 C   0  0  0  0  0  0  0  0  0  0  0  0
   -6.9236    3.6010  -11.9041 C   0  0  1  0  0  0  0  0  0  0  0  0
   -7.1991    4.0338  -13.2477 N   0  0  0  0  0  0  0  0  0  0  0  0
   -6.9422    5.3771  -13.9318 C   0  0  0  0  0  0  0  0  0  0  0  0
   -6.5371    6.3770  -13.5006 O   0  0  0  0  0  0  0  0  0  0  0  0
   -7.2012    5.2245  -15.3914 C   0  0  0  0  0  0  0  0  0  0  0  0
   -8.4169    4.7478  -15.8929 C   0  0  0  0  0  0  0  0  0  0  0  0
   -8.5403    4.5300  -17.2656 C   0  0  0  0  0  0  0  0  0  0  0  0
  -10.0264    3.9979  -17.9419 Cl  0  0  0  0  0  0  0  0  0  0  0  0
   -7.4691    4.7626  -18.1240 C   0  0  0  0  0  0  0  0  0  0  0  0
   -6.2503    5.1940  -17.6080 C   0  0  0  0  0  0  0  0  0  0  0  0
   -5.1754    5.3078  -18.4767 N   0  0  0  0  0  0  0  0  0  0  0  0
   -3.6825    5.4497  -18.1944 C   0  0  0  0  0  0  0  0  0  0  0  0
   -3.1141    5.5716  -17.1889 O   0  0  0  0  0  0  0  0  0  0  0  0
   -3.0973    5.3687  -19.4115 O   0  0  0  0  0  0  0  0  0  0  0  0
   -1.6670    5.3881  -19.4026 C   0  0  0  0  0  0  0  0  0  0  0  0
   -1.1688    5.7678  -20.7744 C   0  0  0  0  0  0  0  0  0  0  0  0
    0.1341    6.2661  -20.9156 C   0  0  0  0  0  0  0  0  0  0  0  0
    0.6334    6.5959  -22.1750 C   0  0  0  0  0  0  0  0  0  0  0  0
   -0.1651    6.4363  -23.3053 C   0  0  0  0  0  0  0  0  0  0  0  0
   -1.4602    5.9408  -23.1789 C   0  0  0  0  0  0  0  0  0  0  0  0
   -1.9539    5.5909  -21.9234 C   0  0  0  0  0  0  0  0  0  0  0  0
   -6.1180    5.4459  -16.2458 C   0  0  0  0  0  0  0  0  0  0  0  0
   -7.1312    4.5002  -10.7142 C   0  0  0  0  0  0  0  0  0  0  0  0
   -6.5082    4.0279   -9.5426 C   0  0  0  0  0  0  0  0  0  0  0  0
   -6.9820    4.3780   -8.3011 C   0  0  0  0  0  0  0  0  0  0  0  0
   -8.0228    5.2820   -8.2175 C   0  0  0  0  0  0  0  0  0  0  0  0
   -8.7893    5.2546   -7.0526 N   0  0  0  0  0  0  0  0  0  0  0  0
   -9.2020    6.3068   -6.2793 C   0  0  0  0  0  0  0  0  0  0  0  0
   -9.8206    5.8957   -5.1914 N   0  0  0  0  0  0  0  0  0  0  0  0
   -9.9307    4.5320   -5.3454 C   0  0  0  0  0  0  0  0  0  0  0  0
  -10.5656    3.5810   -4.5449 C   0  0  0  0  0  0  0  0  0  0  0  0
  -10.6875    2.2704   -5.0205 C   0  0  0  0  0  0  0  0  0  0  0  0
  -10.1068    1.8745   -6.2179 C   0  0  0  0  0  0  0  0  0  0  0  0
   -9.3922    2.7821   -6.9850 C   0  0  0  0  0  0  0  0  0  0  0  0
   -9.3304    4.1057   -6.5189 C   0  0  0  0  0  0  0  0  0  0  0  0
   -8.4516    5.9708   -9.3428 C   0  0  0  0  0  0  0  0  0  0  0  0
   -9.3463    6.9619   -9.2513 F   0  0  0  0  0  0  0  0  0  0  0  0
   -8.0399    5.5517  -10.6117 C   0  0  0  0  0  0  0  0  0  0  0  0
  2  1  1  1
  2  3  1  0
  3  4  1  0
  4  5  2  0
  4  6  1  0
  6  7  2  0
  7  8  1  0
  8  9  1  0
  8 10  2  0
 10 11  1  0
 11 12  1  0
 12 13  1  0
 13 14  2  0
 13 15  1  0
 15 16  1  0
 16 17  1  0
 17 18  2  0
 18 19  1  0
 19 20  2  0
 20 21  1  0
 21 22  2  0
 11 23  2  0
  2 24  1  0
 24 25  2  0
 25 26  1  0
 26 27  2  0
 27 28  1  0
 28 29  1  0
 29 30  2  0
 30 31  1  0
 31 32  2  0
 32 33  1  0
 33 34  2  0
 34 35  1  0
 35 36  2  0
 27 37  1  0
 37 38  1  0
 37 39  2  0
 23  6  1  0
 39 24  1  0
 22 17  1  0
 36 28  1  0
 36 31  1  0
M  END
>  <name>  (144) 
P139871

>  <alias>  (144) 
None

>  <smina_score_min>  (144) 
-8.783

>  <exports>  (144) 
['/opt/xchem-fragalysis-2/maxwin/BulkDock/OUTPUTS/openbind_xx01zvns2b_c2_elabs_1LOUTNY.sdf', '/opt/xchem-fragalysis-2/maxwin/BulkDock/OUTPUTS/openbind_xx01zvns2b_c2_elabs_1LSYIIV.sdf', '/opt/xchem-fragalysis-2/maxwin/openbind-hippo/xx01zvns2b/cycle_02/gnina/openbind_xx01zvns2b_c2_elabs_scored_6.2plus_products.sdf']

>  <tags>  (144) 
syndirella_placed,openbind_xx01zvns2b_c2_elabs,openbind_xx01zvns2b_c2_elabs_scored_6.2plus,syndirella_product,openbind_xx01zvns2b_c2_elabs_scored,openbind_xx01zvns2b_c2_elabs_scored_top80percent,BulkDock Fragalysis export,openbind_xx01zvns2b_c2_elabs_scored_top80percent_despaghettified

>  <subsites>  (144) 
1 - Z4590/B/203/1

>  <smiles>  (144) 
C[C@@H](NC(=O)c1cc(Cl)cc(NC(=O)OCc2ccccc2)c1)c1ccc(-n2cnc3ccccc32)c(F)c1

>  <HIPPO Pose ID>  (144) 
139871

>  <energy_score>  (144) 
-1.52949

>  <inchikey>  (144) 
CGBBFIZMSSYWTJ-LJQANCHMSA-N

>  <gnina_score_min>  (144) 
6.336

>  <gnina_score>  (144) 
6.355

>  <ref_mols>  (144) 
Z3028a

>  <HIPPO Compound ID>  (144) 
198456

>  <distance_score>  (144) 
1.364851

>  <rmsd(smina/fragmenstein)>  (144) 
1.153

>  <ref_pdb>  (144) 
Z3028a

>  <inspiration_score>  (144) 
None

$$$$
P139874
     RDKit          3D

 40 42  0  0  0  0  0  0  0  0999 V2000
   -6.0157    1.8302  -11.3768 C   0  0  0  0  0  0  0  0  0  0  0  0
   -7.2868    2.3492  -11.7767 O   0  0  0  0  0  0  0  0  0  0  0  0
   -7.6881    3.3773  -10.9610 C   0  0  0  0  0  0  0  0  0  0  0  0
   -7.8815    3.1561   -9.5911 C   0  0  0  0  0  0  0  0  0  0  0  0
   -8.3435    4.1777   -8.7340 C   0  0  0  0  0  0  0  0  0  0  0  0
   -8.4069    3.9483   -7.2144 C   0  0  0  0  0  0  0  0  0  0  0  0
   -8.9969    2.5495   -6.8936 C   0  0  0  0  0  0  0  0  0  0  0  0
   -9.2581    4.9472   -6.4066 C   0  0  0  0  0  0  0  0  0  0  0  0
   -7.0384    4.0313   -6.7376 N   0  0  0  0  0  0  0  0  0  0  0  0
   -6.2304    5.2250   -6.2554 C   0  0  0  0  0  0  0  0  0  0  0  0
   -6.4971    6.3528   -6.2300 O   0  0  0  0  0  0  0  0  0  0  0  0
   -5.0346    4.7108   -5.8317 O   0  0  0  0  0  0  0  0  0  0  0  0
   -3.9614    5.6164   -5.4442 C   0  0  0  0  0  0  0  0  0  0  0  0
   -3.5434    6.5200   -6.6119 C   0  0  0  0  0  0  0  0  0  0  0  0
   -2.7712    4.7080   -5.0946 C   0  0  0  0  0  0  0  0  0  0  0  0
   -4.3337    6.4236   -4.1948 C   0  0  0  0  0  0  0  0  0  0  0  0
   -8.6189    5.4215   -9.3218 C   0  0  0  0  0  0  0  0  0  0  0  0
   -8.5088    5.6242  -10.7052 C   0  0  0  0  0  0  0  0  0  0  0  0
   -8.0210    4.6132  -11.5236 C   0  0  0  0  0  0  0  0  0  0  0  0
   -7.8537    4.8708  -12.8810 N   0  0  0  0  0  0  0  0  0  0  0  0
   -6.6959    4.5084  -13.8346 C   0  0  0  0  0  0  0  0  0  0  0  0
   -5.6660    4.0050  -13.6168 O   0  0  0  0  0  0  0  0  0  0  0  0
   -7.0403    4.7786  -15.2666 C   0  0  0  0  0  0  0  0  0  0  0  0
   -8.2948    4.4540  -15.8034 C   0  0  0  0  0  0  0  0  0  0  0  0
   -8.4785    4.4993  -17.1867 C   0  0  0  0  0  0  0  0  0  0  0  0
   -9.9837    4.0582  -17.8926 Cl  0  0  0  0  0  0  0  0  0  0  0  0
   -7.4381    4.8731  -18.0321 C   0  0  0  0  0  0  0  0  0  0  0  0
   -6.1892    5.1764  -17.4985 C   0  0  0  0  0  0  0  0  0  0  0  0
   -5.1413    5.4085  -18.3785 N   0  0  0  0  0  0  0  0  0  0  0  0
   -3.6378    5.4996  -18.1293 C   0  0  0  0  0  0  0  0  0  0  0  0
   -3.0354    5.4716  -17.1364 O   0  0  0  0  0  0  0  0  0  0  0  0
   -3.0884    5.5768  -19.3642 O   0  0  0  0  0  0  0  0  0  0  0  0
   -1.6611    5.4865  -19.3819 C   0  0  0  0  0  0  0  0  0  0  0  0
   -1.1649    5.8193  -20.7656 C   0  0  0  0  0  0  0  0  0  0  0  0
    0.1444    6.2919  -20.9306 C   0  0  0  0  0  0  0  0  0  0  0  0
    0.6376    6.5799  -22.2026 C   0  0  0  0  0  0  0  0  0  0  0  0
   -0.1733    6.4029  -23.3215 C   0  0  0  0  0  0  0  0  0  0  0  0
   -1.4742    5.9297  -23.1711 C   0  0  0  0  0  0  0  0  0  0  0  0
   -1.9617    5.6198  -21.9028 C   0  0  0  0  0  0  0  0  0  0  0  0
   -5.9941    5.1497  -16.1200 C   0  0  0  0  0  0  0  0  0  0  0  0
  1  2  1  0
  2  3  1  0
  3  4  2  0
  4  5  1  0
  5  6  1  0
  6  7  1  0
  6  8  1  0
  6  9  1  0
  9 10  1  0
 10 11  2  0
 10 12  1  0
 12 13  1  0
 13 14  1  0
 13 15  1  0
 13 16  1  0
  5 17  2  0
 17 18  1  0
 18 19  2  0
 19 20  1  0
 20 21  1  0
 21 22  2  0
 21 23  1  0
 23 24  2  0
 24 25  1  0
 25 26  1  0
 25 27  2  0
 27 28  1  0
 28 29  1  0
 29 30  1  0
 30 31  2  0
 30 32  1  0
 32 33  1  0
 33 34  1  0
 34 35  2  0
 35 36  1  0
 36 37  2  0
 37 38  1  0
 38 39  2  0
 28 40  2  0
 19  3  1  0
 40 23  1  0
 39 34  1  0
M  END
>  <name>  (145) 
P139874

>  <alias>  (145) 
None

>  <smina_score_min>  (145) 
-7.617

>  <exports>  (145) 
['/opt/xchem-fragalysis-2/maxwin/BulkDock/OUTPUTS/openbind_xx01zvns2b_c2_elabs_1LOUTNY.sdf', '/opt/xchem-fragalysis-2/maxwin/BulkDock/OUTPUTS/openbind_xx01zvns2b_c2_elabs_1LSYIIV.sdf', '/opt/xchem-fragalysis-2/maxwin/openbind-hippo/xx01zvns2b/cycle_02/gnina/openbind_xx01zvns2b_c2_elabs_scored_6.2plus_products.sdf']

>  <tags>  (145) 
syndirella_placed,openbind_xx01zvns2b_c2_elabs,openbind_xx01zvns2b_c2_elabs_scored_6.2plus,syndirella_product,openbind_xx01zvns2b_c2_elabs_scored,openbind_xx01zvns2b_c2_elabs_scored_top80percent,BulkDock Fragalysis export,openbind_xx01zvns2b_c2_elabs_scored_top80percent_despaghettified

>  <subsites>  (145) 
1 - Z4590/B/203/1

>  <smiles>  (145) 
COc1cc(C(C)(C)NC(=O)OC(C)(C)C)ccc1NC(=O)c1cc(Cl)cc(NC(=O)OCc2ccccc2)c1

>  <HIPPO Pose ID>  (145) 
139874

>  <energy_score>  (145) 
-46.621109

>  <inchikey>  (145) 
SQKMBOGLWQNCOP-UHFFFAOYSA-N

>  <gnina_score_min>  (145) 
6.302

>  <gnina_score>  (145) 
6.156

>  <ref_mols>  (145) 
Z3028a

>  <HIPPO Compound ID>  (145) 
198463

>  <distance_score>  (145) 
0.75638

>  <rmsd(smina/fragmenstein)>  (145) 
2.083

>  <ref_pdb>  (145) 
Z3028a

>  <inspiration_score>  (145) 
None

$$$$
P139996
     RDKit          3D

 32 35  0  0  0  0  0  0  0  0999 V2000
   -5.8379    1.1151  -10.1624 C   0  0  0  0  0  0  0  0  0  0  0  0
   -5.9762    2.4458   -9.4463 C   0  0  0  0  0  0  0  0  0  0  0  0
   -7.3792    2.7404   -9.0362 N   0  0  0  0  0  0  0  0  0  0  0  0
   -7.5180    3.4171   -7.7172 C   0  0  0  0  0  0  0  0  0  0  0  0
   -8.3230    4.7096   -7.8693 C   0  0  0  0  0  0  0  0  0  0  0  0
   -8.2699    4.8965   -9.3371 C   0  0  0  0  0  0  0  0  0  0  0  0
   -8.4672    6.0446  -10.0790 C   0  0  0  0  0  0  0  0  0  0  0  0
   -8.3072    5.9668  -11.4640 C   0  0  0  0  0  0  0  0  0  0  0  0
   -8.0550    4.7345  -12.0814 C   0  0  0  0  0  0  0  0  0  0  0  0
   -7.8458    4.6330  -13.4465 N   0  0  0  0  0  0  0  0  0  0  0  0
   -7.5934    5.7200  -14.5003 C   0  0  0  0  0  0  0  0  0  0  0  0
   -7.4443    6.8684  -14.3798 O   0  0  0  0  0  0  0  0  0  0  0  0
   -7.5850    5.1307  -15.8461 C   0  0  0  0  0  0  0  0  0  0  0  0
   -8.7904    4.6832  -16.3704 C   0  0  0  0  0  0  0  0  0  0  0  0
   -8.8564    4.3575  -17.7148 C   0  0  0  0  0  0  0  0  0  0  0  0
  -10.3790    3.9891  -18.3946 Cl  0  0  0  0  0  0  0  0  0  0  0  0
   -7.7204    4.4068  -18.5148 C   0  0  0  0  0  0  0  0  0  0  0  0
   -6.4999    4.7805  -17.9531 C   0  0  0  0  0  0  0  0  0  0  0  0
   -5.3684    4.7755  -18.7516 N   0  0  0  0  0  0  0  0  0  0  0  0
   -3.8967    4.9377  -18.3865 C   0  0  0  0  0  0  0  0  0  0  0  0
   -3.3835    5.0257  -17.3487 O   0  0  0  0  0  0  0  0  0  0  0  0
   -3.2472    4.9935  -19.5777 O   0  0  0  0  0  0  0  0  0  0  0  0
   -1.8512    5.3142  -19.4985 C   0  0  0  0  0  0  0  0  0  0  0  0
   -1.6304    6.7938  -19.7181 C   0  0  0  0  0  0  0  0  0  0  0  0
   -0.5204    7.2170  -20.4609 C   0  0  0  0  0  0  0  0  0  0  0  0
   -0.2874    8.5759  -20.6782 C   0  0  0  0  0  0  0  0  0  0  0  0
   -1.1534    9.5291  -20.1465 C   0  0  0  0  0  0  0  0  0  0  0  0
   -2.2449    9.1261  -19.3837 C   0  0  0  0  0  0  0  0  0  0  0  0
   -2.4758    7.7684  -19.1625 C   0  0  0  0  0  0  0  0  0  0  0  0
   -6.4290    5.1656  -16.6168 C   0  0  0  0  0  0  0  0  0  0  0  0
   -7.9223    3.5774  -11.3258 C   0  0  0  0  0  0  0  0  0  0  0  0
   -7.9144    3.6990   -9.9474 C   0  0  0  0  0  0  0  0  0  0  0  0
  1  2  1  0
  2  3  1  0
  3  4  1  0
  4  5  1  0
  5  6  1  0
  6  7  2  0
  7  8  1  0
  8  9  2  0
  9 10  1  0
 10 11  1  0
 11 12  2  0
 11 13  1  0
 13 14  2  0
 14 15  1  0
 15 16  1  0
 15 17  2  0
 17 18  1  0
 18 19  1  0
 19 20  1  0
 20 21  2  0
 20 22  1  0
 22 23  1  0
 23 24  1  0
 24 25  2  0
 25 26  1  0
 26 27  2  0
 27 28  1  0
 28 29  2  0
 18 30  2  0
  9 31  1  0
 31 32  2  0
 32  3  1  0
 32  6  1  0
 30 13  1  0
 29 24  1  0
M  END
>  <name>  (146) 
P139996

>  <alias>  (146) 
None

>  <smina_score_min>  (146) 
-7.107

>  <exports>  (146) 
['/opt/xchem-fragalysis-2/maxwin/BulkDock/OUTPUTS/openbind_xx01zvns2b_c2_elabs_1LOUTNY.sdf', '/opt/xchem-fragalysis-2/maxwin/BulkDock/OUTPUTS/openbind_xx01zvns2b_c2_elabs_1LSYIIV.sdf', '/opt/xchem-fragalysis-2/maxwin/openbind-hippo/xx01zvns2b/cycle_02/gnina/openbind_xx01zvns2b_c2_elabs_scored_6.2plus_products.sdf']

>  <tags>  (146) 
syndirella_placed,openbind_xx01zvns2b_c2_elabs,openbind_xx01zvns2b_c2_elabs_scored_6.2plus,syndirella_product,openbind_xx01zvns2b_c2_elabs_scored,openbind_xx01zvns2b_c2_elabs_scored_top80percent,BulkDock Fragalysis export,openbind_xx01zvns2b_c2_elabs_scored_top80percent_despaghettified

>  <subsites>  (146) 
1 - Z4590/B/203/1

>  <smiles>  (146) 
CCN1CCc2ccc(NC(=O)c3cc(Cl)cc(NC(=O)OCc4ccccc4)c3)cc21

>  <HIPPO Pose ID>  (146) 
139996

>  <energy_score>  (146) 
-9.461021

>  <inchikey>  (146) 
UVFOFTDECFPULA-UHFFFAOYSA-N

>  <gnina_score_min>  (146) 
6.254

>  <gnina_score>  (146) 
6.132

>  <ref_mols>  (146) 
Z3024a

>  <HIPPO Compound ID>  (146) 
198767

>  <distance_score>  (146) 
0.895702

>  <rmsd(smina/fragmenstein)>  (146) 
1.958

>  <ref_pdb>  (146) 
Z3024a

>  <inspiration_score>  (146) 
None

$$$$
P140027
     RDKit          3D

 34 37  0  0  0  0  0  0  0  0999 V2000
   -3.6907    3.8565   -8.8923 C   0  0  0  0  0  0  0  0  0  0  0  0
   -5.2018    3.7545   -8.7311 C   0  0  0  0  0  0  0  0  0  0  0  0
   -5.7396    2.4683   -9.3616 C   0  0  0  0  0  0  0  0  0  0  0  0
   -7.1319    1.9450   -8.9486 C   0  0  0  0  0  0  0  0  0  0  0  0
   -8.2205    2.8949   -8.7480 N   0  0  0  0  0  0  0  0  0  0  0  0
   -8.3841    3.5448   -7.4449 C   0  0  0  0  0  0  0  0  0  0  0  0
   -8.3133    5.0654   -7.6610 C   0  0  0  0  0  0  0  0  0  0  0  0
   -8.3534    5.1691   -9.1484 C   0  0  0  0  0  0  0  0  0  0  0  0
   -8.2799    6.3027   -9.9329 C   0  0  0  0  0  0  0  0  0  0  0  0
   -8.1640    6.1395  -11.3154 C   0  0  0  0  0  0  0  0  0  0  0  0
   -8.1705    4.8610  -11.8943 C   0  0  0  0  0  0  0  0  0  0  0  0
   -8.0201    4.6983  -13.2668 N   0  0  0  0  0  0  0  0  0  0  0  0
   -7.6295    5.7133  -14.3583 C   0  0  0  0  0  0  0  0  0  0  0  0
   -7.4468    6.8634  -14.2910 O   0  0  0  0  0  0  0  0  0  0  0  0
   -7.5881    5.0865  -15.6914 C   0  0  0  0  0  0  0  0  0  0  0  0
   -8.7807    4.6532  -16.2596 C   0  0  0  0  0  0  0  0  0  0  0  0
   -8.8134    4.3487  -17.6130 C   0  0  0  0  0  0  0  0  0  0  0  0
  -10.3142    3.9820  -18.3473 Cl  0  0  0  0  0  0  0  0  0  0  0  0
   -7.6591    4.4158  -18.3847 C   0  0  0  0  0  0  0  0  0  0  0  0
   -6.4527    4.7760  -17.7855 C   0  0  0  0  0  0  0  0  0  0  0  0
   -5.3041    4.7793  -18.5603 N   0  0  0  0  0  0  0  0  0  0  0  0
   -3.8425    4.9583  -18.1650 C   0  0  0  0  0  0  0  0  0  0  0  0
   -3.3522    5.0562  -17.1171 O   0  0  0  0  0  0  0  0  0  0  0  0
   -3.1688    5.0006  -19.3426 O   0  0  0  0  0  0  0  0  0  0  0  0
   -1.7811    5.3484  -19.2466 C   0  0  0  0  0  0  0  0  0  0  0  0
   -1.5986    6.8101  -19.5789 C   0  0  0  0  0  0  0  0  0  0  0  0
   -2.4091    7.8028  -19.0041 C   0  0  0  0  0  0  0  0  0  0  0  0
   -2.2286    9.1472  -19.3275 C   0  0  0  0  0  0  0  0  0  0  0  0
   -1.2210    9.5186  -20.2125 C   0  0  0  0  0  0  0  0  0  0  0  0
   -0.3895    8.5474  -20.7672 C   0  0  0  0  0  0  0  0  0  0  0  0
   -0.5741    7.2009  -20.4501 C   0  0  0  0  0  0  0  0  0  0  0  0
   -6.4151    5.1355  -16.4398 C   0  0  0  0  0  0  0  0  0  0  0  0
   -8.2904    3.7292  -11.0926 C   0  0  0  0  0  0  0  0  0  0  0  0
   -8.3261    3.8983   -9.7156 C   0  0  0  0  0  0  0  0  0  0  0  0
  1  2  1  0
  2  3  1  0
  3  4  1  0
  4  5  1  0
  5  6  1  0
  6  7  1  0
  7  8  1  0
  8  9  2  0
  9 10  1  0
 10 11  2  0
 11 12  1  0
 12 13  1  0
 13 14  2  0
 13 15  1  0
 15 16  2  0
 16 17  1  0
 17 18  1  0
 17 19  2  0
 19 20  1  0
 20 21  1  0
 21 22  1  0
 22 23  2  0
 22 24  1  0
 24 25  1  0
 25 26  1  0
 26 27  2  0
 27 28  1  0
 28 29  2  0
 29 30  1  0
 30 31  2  0
 20 32  2  0
 11 33  1  0
 33 34  2  0
 34  5  1  0
 34  8  1  0
 32 15  1  0
 31 26  1  0
M  END
>  <name>  (147) 
P140027

>  <alias>  (147) 
None

>  <smina_score_min>  (147) 
-6.457

>  <exports>  (147) 
['/opt/xchem-fragalysis-2/maxwin/BulkDock/OUTPUTS/openbind_xx01zvns2b_c2_elabs_1LOUTNY.sdf', '/opt/xchem-fragalysis-2/maxwin/BulkDock/OUTPUTS/openbind_xx01zvns2b_c2_elabs_1LSYIIV.sdf', '/opt/xchem-fragalysis-2/maxwin/openbind-hippo/xx01zvns2b/cycle_02/gnina/openbind_xx01zvns2b_c2_elabs_scored_6.2plus_products.sdf']

>  <tags>  (147) 
syndirella_placed,openbind_xx01zvns2b_c2_elabs,openbind_xx01zvns2b_c2_elabs_scored_6.2plus,syndirella_product,openbind_xx01zvns2b_c2_elabs_scored,openbind_xx01zvns2b_c2_elabs_scored_top80percent,BulkDock Fragalysis export,openbind_xx01zvns2b_c2_elabs_scored_top80percent_despaghettified

>  <subsites>  (147) 
1 - Z4590/B/203/1

>  <smiles>  (147) 
CCCCN1CCc2ccc(NC(=O)c3cc(Cl)cc(NC(=O)OCc4ccccc4)c3)cc21

>  <HIPPO Pose ID>  (147) 
140027

>  <energy_score>  (147) 
-34.393323

>  <inchikey>  (147) 
QFWRUFFMRMABFB-UHFFFAOYSA-N

>  <gnina_score_min>  (147) 
6.236

>  <gnina_score>  (147) 
6.196

>  <ref_mols>  (147) 
Z3024a

>  <HIPPO Compound ID>  (147) 
198800

>  <distance_score>  (147) 
0.8336

>  <rmsd(smina/fragmenstein)>  (147) 
1.127

>  <ref_pdb>  (147) 
Z3024a

>  <inspiration_score>  (147) 
None

$$$$
P140058
     RDKit          3D

 35 38  0  0  0  0  0  0  0  0999 V2000
   -3.6435    2.7474   -9.6337 C   0  0  0  0  0  0  0  0  0  0  0  0
   -5.0213    2.5507   -9.3175 N   0  0  0  0  0  0  0  0  0  0  0  0
   -5.9188    1.2927   -9.4614 C   0  0  0  0  0  0  0  0  0  0  0  0
   -5.6880    0.2474   -9.9324 O   0  0  0  0  0  0  0  0  0  0  0  0
   -7.3160    1.6635   -8.8241 C   0  0  0  0  0  0  0  0  0  0  0  0
   -7.4471    3.0919   -8.5325 N   0  0  0  0  0  0  0  0  0  0  0  0
   -8.2311    3.5429   -7.3838 C   0  0  0  0  0  0  0  0  0  0  0  0
   -8.3345    5.0714   -7.5574 C   0  0  0  0  0  0  0  0  0  0  0  0
   -8.2568    5.1777   -9.0484 C   0  0  0  0  0  0  0  0  0  0  0  0
   -8.4577    6.2709   -9.8645 C   0  0  0  0  0  0  0  0  0  0  0  0
   -8.2699    6.1079  -11.2401 C   0  0  0  0  0  0  0  0  0  0  0  0
   -7.9208    4.8599  -11.7801 C   0  0  0  0  0  0  0  0  0  0  0  0
   -7.7311    4.7023  -13.1495 N   0  0  0  0  0  0  0  0  0  0  0  0
   -7.6588    5.7473  -14.2747 C   0  0  0  0  0  0  0  0  0  0  0  0
   -7.6696    6.9115  -14.2265 O   0  0  0  0  0  0  0  0  0  0  0  0
   -7.5832    5.1130  -15.6015 C   0  0  0  0  0  0  0  0  0  0  0  0
   -8.7555    4.6535  -16.1910 C   0  0  0  0  0  0  0  0  0  0  0  0
   -8.7554    4.3478  -17.5461 C   0  0  0  0  0  0  0  0  0  0  0  0
  -10.2310    3.9453  -18.3158 Cl  0  0  0  0  0  0  0  0  0  0  0  0
   -7.5875    4.4421  -18.2962 C   0  0  0  0  0  0  0  0  0  0  0  0
   -6.4017    4.8285  -17.6729 C   0  0  0  0  0  0  0  0  0  0  0  0
   -5.2375    4.8803  -18.4232 N   0  0  0  0  0  0  0  0  0  0  0  0
   -3.7833    5.0243  -17.9879 C   0  0  0  0  0  0  0  0  0  0  0  0
   -3.3259    5.2000  -16.9350 O   0  0  0  0  0  0  0  0  0  0  0  0
   -3.0706    4.9725  -19.1420 O   0  0  0  0  0  0  0  0  0  0  0  0
   -1.6954    5.3630  -19.0318 C   0  0  0  0  0  0  0  0  0  0  0  0
   -1.5469    6.7980  -19.4782 C   0  0  0  0  0  0  0  0  0  0  0  0
   -2.3383    7.8200  -18.9278 C   0  0  0  0  0  0  0  0  0  0  0  0
   -2.1967    9.1405  -19.3528 C   0  0  0  0  0  0  0  0  0  0  0  0
   -1.2465    9.4598  -20.3178 C   0  0  0  0  0  0  0  0  0  0  0  0
   -0.4361    8.4603  -20.8535 C   0  0  0  0  0  0  0  0  0  0  0  0
   -0.5835    7.1365  -20.4360 C   0  0  0  0  0  0  0  0  0  0  0  0
   -6.3979    5.1873  -16.3264 C   0  0  0  0  0  0  0  0  0  0  0  0
   -7.7160    3.7670  -10.9421 C   0  0  0  0  0  0  0  0  0  0  0  0
   -7.8356    3.9559   -9.5719 C   0  0  0  0  0  0  0  0  0  0  0  0
  1  2  1  0
  2  3  1  0
  3  4  2  0
  3  5  1  0
  5  6  1  0
  6  7  1  0
  7  8  1  0
  8  9  1  0
  9 10  2  0
 10 11  1  0
 11 12  2  0
 12 13  1  0
 13 14  1  0
 14 15  2  0
 14 16  1  0
 16 17  2  0
 17 18  1  0
 18 19  1  0
 18 20  2  0
 20 21  1  0
 21 22  1  0
 22 23  1  0
 23 24  2  0
 23 25  1  0
 25 26  1  0
 26 27  1  0
 27 28  2  0
 28 29  1  0
 29 30  2  0
 30 31  1  0
 31 32  2  0
 21 33  2  0
 12 34  1  0
 34 35  2  0
 35  6  1  0
 35  9  1  0
 33 16  1  0
 32 27  1  0
M  END
>  <name>  (148) 
P140058

>  <alias>  (148) 
None

>  <smina_score_min>  (148) 
-7.026

>  <exports>  (148) 
['/opt/xchem-fragalysis-2/maxwin/BulkDock/OUTPUTS/openbind_xx01zvns2b_c2_elabs_1LOUTNY.sdf', '/opt/xchem-fragalysis-2/maxwin/BulkDock/OUTPUTS/openbind_xx01zvns2b_c2_elabs_1LSYIIV.sdf', '/opt/xchem-fragalysis-2/maxwin/openbind-hippo/xx01zvns2b/cycle_02/gnina/openbind_xx01zvns2b_c2_elabs_scored_6.2plus_products.sdf']

>  <tags>  (148) 
syndirella_placed,openbind_xx01zvns2b_c2_elabs,openbind_xx01zvns2b_c2_elabs_scored_6.2plus,syndirella_product,openbind_xx01zvns2b_c2_elabs_scored,openbind_xx01zvns2b_c2_elabs_scored_top80percent,BulkDock Fragalysis export,openbind_xx01zvns2b_c2_elabs_scored_top80percent_despaghettified

>  <subsites>  (148) 
1 - Z4590/B/203/1

>  <smiles>  (148) 
CNC(=O)CN1CCc2ccc(NC(=O)c3cc(Cl)cc(NC(=O)OCc4ccccc4)c3)cc21

>  <HIPPO Pose ID>  (148) 
140058

>  <energy_score>  (148) 
-19.861679

>  <inchikey>  (148) 
LUIPHFDESOMUFI-UHFFFAOYSA-N

>  <gnina_score_min>  (148) 
6.24

>  <gnina_score>  (148) 
6.197

>  <ref_mols>  (148) 
Z3024a

>  <HIPPO Compound ID>  (148) 
198839

>  <distance_score>  (148) 
0.884309

>  <rmsd(smina/fragmenstein)>  (148) 
1.451

>  <ref_pdb>  (148) 
Z3024a

>  <inspiration_score>  (148) 
None

$$$$
P140064
     RDKit          3D

 35 38  0  0  0  0  0  0  0  0999 V2000
   -3.4450    4.9064  -17.6092 O   0  0  0  0  0  0  0  0  0  0  0  0
   -3.9972    4.8719  -18.6305 C   0  0  0  0  0  0  0  0  0  0  0  0
   -5.4847    4.7401  -18.9480 N   0  0  0  0  0  0  0  0  0  0  0  0
   -6.5863    4.7177  -18.1080 C   0  0  0  0  0  0  0  0  0  0  0  0
   -7.8320    4.3745  -18.6316 C   0  0  0  0  0  0  0  0  0  0  0  0
   -8.9424    4.3363  -17.7958 C   0  0  0  0  0  0  0  0  0  0  0  0
  -10.4991    4.0371  -18.4252 Cl  0  0  0  0  0  0  0  0  0  0  0  0
   -8.8255    4.6239  -16.4481 C   0  0  0  0  0  0  0  0  0  0  0  0
   -7.5909    5.0164  -15.9525 C   0  0  0  0  0  0  0  0  0  0  0  0
   -7.5222    5.5502  -14.5880 C   0  0  0  0  0  0  0  0  0  0  0  0
   -7.2049    6.6617  -14.4342 O   0  0  0  0  0  0  0  0  0  0  0  0
   -7.9677    4.4880  -13.5654 N   0  0  0  0  0  0  0  0  0  0  0  0
   -8.0235    4.5382  -12.1849 C   0  0  0  0  0  0  0  0  0  0  0  0
   -7.7391    5.7206  -11.5064 C   0  0  0  0  0  0  0  0  0  0  0  0
   -7.5986    5.7101  -10.1257 C   0  0  0  0  0  0  0  0  0  0  0  0
   -7.7202    4.5083   -9.4292 C   0  0  0  0  0  0  0  0  0  0  0  0
   -7.3117    4.4421   -7.9891 C   0  0  0  0  0  0  0  0  0  0  0  0
   -8.4860    4.4519   -7.0239 C   0  0  0  0  0  0  0  0  0  0  0  0
   -8.2350    3.4929   -5.9543 N   0  0  0  0  0  0  0  0  0  0  0  0
   -8.6070    2.1381   -6.4069 C   0  0  0  0  0  0  0  0  0  0  0  0
  -10.0999    1.8438   -6.5657 C   0  0  0  0  0  0  0  0  0  0  0  0
  -11.1677    2.3325   -5.1743 S   0  0  0  0  0  0  0  0  0  0  0  0
  -10.4004    3.9060   -4.7313 C   0  0  0  0  0  0  0  0  0  0  0  0
   -8.8807    3.8464   -4.6937 C   0  0  0  0  0  0  0  0  0  0  0  0
   -8.1151    3.3454  -10.1048 C   0  0  0  0  0  0  0  0  0  0  0  0
   -8.2748    3.3632  -11.4847 C   0  0  0  0  0  0  0  0  0  0  0  0
   -6.4624    5.0555  -16.7641 C   0  0  0  0  0  0  0  0  0  0  0  0
   -3.3867    4.9777  -19.8406 O   0  0  0  0  0  0  0  0  0  0  0  0
   -1.9809    5.2630  -19.7889 C   0  0  0  0  0  0  0  0  0  0  0  0
   -1.7082    6.7501  -19.8627 C   0  0  0  0  0  0  0  0  0  0  0  0
   -0.4822    7.1850  -20.3855 C   0  0  0  0  0  0  0  0  0  0  0  0
   -0.1879    8.5466  -20.4713 C   0  0  0  0  0  0  0  0  0  0  0  0
   -1.1079    9.4915  -20.0222 C   0  0  0  0  0  0  0  0  0  0  0  0
   -2.3178    9.0761  -19.4756 C   0  0  0  0  0  0  0  0  0  0  0  0
   -2.6131    7.7151  -19.3908 C   0  0  0  0  0  0  0  0  0  0  0  0
  1  2  2  0
  2  3  1  0
  3  4  1  0
  4  5  2  0
  5  6  1  0
  6  7  1  0
  6  8  2  0
  8  9  1  0
  9 10  1  0
 10 11  2  0
 10 12  1  0
 12 13  1  0
 13 14  2  0
 14 15  1  0
 15 16  2  0
 16 17  1  0
 17 18  1  0
 18 19  1  0
 19 20  1  0
 20 21  1  0
 21 22  1  0
 22 23  1  0
 23 24  1  0
 16 25  1  0
 25 26  2  0
  9 27  2  0
  2 28  1  0
 28 29  1  0
 29 30  1  0
 30 31  2  0
 31 32  1  0
 32 33  2  0
 33 34  1  0
 34 35  2  0
 27  4  1  0
 35 30  1  0
 26 13  1  0
 24 19  1  0
M  END
>  <name>  (149) 
P140064

>  <alias>  (149) 
None

>  <smina_score_min>  (149) 
-7.304

>  <exports>  (149) 
['/opt/xchem-fragalysis-2/maxwin/BulkDock/OUTPUTS/openbind_xx01zvns2b_c2_elabs_1LOUTNY.sdf', '/opt/xchem-fragalysis-2/maxwin/BulkDock/OUTPUTS/openbind_xx01zvns2b_c2_elabs_1LSYIIV.sdf', '/opt/xchem-fragalysis-2/maxwin/openbind-hippo/xx01zvns2b/cycle_02/gnina/openbind_xx01zvns2b_c2_elabs_scored_6.2plus_products.sdf']

>  <tags>  (149) 
syndirella_placed,openbind_xx01zvns2b_c2_elabs,openbind_xx01zvns2b_c2_elabs_scored_6.2plus,syndirella_product,openbind_xx01zvns2b_c2_elabs_scored,openbind_xx01zvns2b_c2_elabs_scored_top80percent,BulkDock Fragalysis export,openbind_xx01zvns2b_c2_elabs_scored_top80percent_despaghettified

>  <subsites>  (149) 
1 - Z4590/B/203/1

>  <smiles>  (149) 
O=C(Nc1cc(Cl)cc(C(=O)Nc2ccc(CCN3CCSCC3)cc2)c1)OCc1ccccc1

>  <HIPPO Pose ID>  (149) 
140064

>  <energy_score>  (149) 
-30.307293

>  <inchikey>  (149) 
KYJDDCBSYIAOTB-UHFFFAOYSA-N

>  <gnina_score_min>  (149) 
6.332

>  <gnina_score>  (149) 
6.123

>  <ref_mols>  (149) 
Z3024a

>  <HIPPO Compound ID>  (149) 
198845

>  <distance_score>  (149) 
0.692565

>  <rmsd(smina/fragmenstein)>  (149) 
1.578

>  <ref_pdb>  (149) 
Z3024a

>  <inspiration_score>  (149) 
None

$$$$
P140088
     RDKit          3D

 36 39  0  0  0  0  0  0  0  0999 V2000
   -8.7747    5.8578   -2.5934 C   0  0  0  0  0  0  0  0  0  0  0  0
   -8.3110    6.0571   -3.9665 N   0  0  0  0  0  0  0  0  0  0  0  0
   -9.4404    6.0455   -4.9155 C   0  0  0  0  0  0  0  0  0  0  0  0
  -10.0664    4.6547   -5.1956 C   0  0  0  0  0  0  0  0  0  0  0  0
   -9.1357    3.5564   -5.4555 N   0  0  0  0  0  0  0  0  0  0  0  0
   -8.8818    3.2452   -6.8680 C   0  0  0  0  0  0  0  0  0  0  0  0
   -8.0302    4.2668   -7.6320 C   0  0  0  0  0  0  0  0  0  0  0  0
   -8.1008    4.2410   -9.1392 C   0  0  0  0  0  0  0  0  0  0  0  0
   -7.8756    5.4417   -9.8309 C   0  0  0  0  0  0  0  0  0  0  0  0
   -7.8490    5.4741  -11.2238 C   0  0  0  0  0  0  0  0  0  0  0  0
   -8.0450    4.3045  -11.9487 C   0  0  0  0  0  0  0  0  0  0  0  0
   -7.9814    4.3081  -13.3375 N   0  0  0  0  0  0  0  0  0  0  0  0
   -7.5066    5.4032  -14.3168 C   0  0  0  0  0  0  0  0  0  0  0  0
   -7.1668    6.5018  -14.1166 O   0  0  0  0  0  0  0  0  0  0  0  0
   -7.5635    4.9354  -15.7142 C   0  0  0  0  0  0  0  0  0  0  0  0
   -8.7878    4.5647  -16.2590 C   0  0  0  0  0  0  0  0  0  0  0  0
   -8.8783    4.3408  -17.6258 C   0  0  0  0  0  0  0  0  0  0  0  0
  -10.4096    4.0308  -18.3231 Cl  0  0  0  0  0  0  0  0  0  0  0  0
   -7.7531    4.4302  -18.4377 C   0  0  0  0  0  0  0  0  0  0  0  0
   -6.5192    4.7447  -17.8716 C   0  0  0  0  0  0  0  0  0  0  0  0
   -5.4017    4.7767  -18.6904 N   0  0  0  0  0  0  0  0  0  0  0  0
   -3.9223    4.9126  -18.3442 C   0  0  0  0  0  0  0  0  0  0  0  0
   -3.3898    4.9432  -17.3127 O   0  0  0  0  0  0  0  0  0  0  0  0
   -3.2922    5.0108  -19.5433 O   0  0  0  0  0  0  0  0  0  0  0  0
   -1.8896    5.3058  -19.4788 C   0  0  0  0  0  0  0  0  0  0  0  0
   -1.6543    6.7830  -19.6956 C   0  0  0  0  0  0  0  0  0  0  0  0
   -0.5512    7.1987  -20.4527 C   0  0  0  0  0  0  0  0  0  0  0  0
   -0.3097    8.5563  -20.6685 C   0  0  0  0  0  0  0  0  0  0  0  0
   -1.1604    9.5148  -20.1215 C   0  0  0  0  0  0  0  0  0  0  0  0
   -2.2442    9.1185  -19.3441 C   0  0  0  0  0  0  0  0  0  0  0  0
   -2.4833    7.7621  -19.1238 C   0  0  0  0  0  0  0  0  0  0  0  0
   -6.4228    5.0208  -16.5097 C   0  0  0  0  0  0  0  0  0  0  0  0
   -8.2874    3.1091  -11.2752 C   0  0  0  0  0  0  0  0  0  0  0  0
   -8.3035    3.0723   -9.8767 C   0  0  0  0  0  0  0  0  0  0  0  0
   -7.9581    3.6093   -4.5913 C   0  0  0  0  0  0  0  0  0  0  0  0
   -7.3477    5.0120   -4.3677 C   0  0  0  0  0  0  0  0  0  0  0  0
  1  2  1  0
  2  3  1  0
  3  4  1  0
  4  5  1  0
  5  6  1  0
  6  7  1  0
  7  8  1  0
  8  9  2  0
  9 10  1  0
 10 11  2  0
 11 12  1  0
 12 13  1  0
 13 14  2  0
 13 15  1  0
 15 16  2  0
 16 17  1  0
 17 18  1  0
 17 19  2  0
 19 20  1  0
 20 21  1  0
 21 22  1  0
 22 23  2  0
 22 24  1  0
 24 25  1  0
 25 26  1  0
 26 27  2  0
 27 28  1  0
 28 29  2  0
 29 30  1  0
 30 31  2  0
 20 32  2  0
 11 33  1  0
 33 34  2  0
  5 35  1  0
 35 36  1  0
 36  2  1  0
 34  8  1  0
 32 15  1  0
 31 26  1  0
M  END
>  <name>  (150) 
P140088

>  <alias>  (150) 
None

>  <smina_score_min>  (150) 
-7.718

>  <exports>  (150) 
['/opt/xchem-fragalysis-2/maxwin/BulkDock/OUTPUTS/openbind_xx01zvns2b_c2_elabs_1LOUTNY.sdf', '/opt/xchem-fragalysis-2/maxwin/BulkDock/OUTPUTS/openbind_xx01zvns2b_c2_elabs_1LSYIIV.sdf', '/opt/xchem-fragalysis-2/maxwin/openbind-hippo/xx01zvns2b/cycle_02/gnina/openbind_xx01zvns2b_c2_elabs_scored_6.2plus_products.sdf']

>  <tags>  (150) 
syndirella_placed,openbind_xx01zvns2b_c2_elabs,openbind_xx01zvns2b_c2_elabs_scored_6.2plus,syndirella_product,openbind_xx01zvns2b_c2_elabs_scored,openbind_xx01zvns2b_c2_elabs_scored_top80percent,BulkDock Fragalysis export,openbind_xx01zvns2b_c2_elabs_scored_top80percent_despaghettified

>  <subsites>  (150) 
1 - Z4590/B/203/1

>  <smiles>  (150) 
CN1CCN(CCc2ccc(NC(=O)c3cc(Cl)cc(NC(=O)OCc4ccccc4)c3)cc2)CC1

>  <HIPPO Pose ID>  (150) 
140088

>  <energy_score>  (150) 
-55.679392

>  <inchikey>  (150) 
GVKXTFJBFGEAKR-UHFFFAOYSA-N

>  <gnina_score_min>  (150) 
6.204

>  <gnina_score>  (150) 
6.064

>  <ref_mols>  (150) 
Z3024a

>  <HIPPO Compound ID>  (150) 
198862

>  <distance_score>  (150) 
0.474747

>  <rmsd(smina/fragmenstein)>  (150) 
1.064

>  <ref_pdb>  (150) 
Z3024a

>  <inspiration_score>  (150) 
None

$$$$
P140095
     RDKit          3D

 37 40  0  0  0  0  0  0  0  0999 V2000
   -5.8214    5.8270   -7.4956 C   0  0  0  0  0  0  0  0  0  0  0  0
   -6.4681    4.4718   -7.2093 C   0  0  0  0  0  0  0  0  0  0  0  0
   -8.0120    4.3478   -7.4546 C   0  0  2  0  0  0  0  0  0  0  0  0
   -8.1973    4.3427   -8.9928 C   0  0  0  0  0  0  0  0  0  0  0  0
   -8.2668    5.5405   -9.7252 C   0  0  0  0  0  0  0  0  0  0  0  0
   -8.1712    5.5487  -11.1233 C   0  0  0  0  0  0  0  0  0  0  0  0
   -8.0429    4.3576  -11.8297 C   0  0  0  0  0  0  0  0  0  0  0  0
   -7.8398    4.3442  -13.2063 N   0  0  0  0  0  0  0  0  0  0  0  0
   -7.7242    5.5057  -14.2126 C   0  0  0  0  0  0  0  0  0  0  0  0
   -7.7040    6.6588  -14.0377 O   0  0  0  0  0  0  0  0  0  0  0  0
   -7.6476    5.0059  -15.5956 C   0  0  0  0  0  0  0  0  0  0  0  0
   -8.8188    4.5946  -16.2175 C   0  0  0  0  0  0  0  0  0  0  0  0
   -8.8104    4.3487  -17.5826 C   0  0  0  0  0  0  0  0  0  0  0  0
  -10.2849    3.9917  -18.3725 Cl  0  0  0  0  0  0  0  0  0  0  0  0
   -7.6329    4.4497  -18.3146 C   0  0  0  0  0  0  0  0  0  0  0  0
   -6.4462    4.7891  -17.6640 C   0  0  0  0  0  0  0  0  0  0  0  0
   -5.2724    4.8011  -18.4015 N   0  0  0  0  0  0  0  0  0  0  0  0
   -3.8273    5.0075  -17.9613 C   0  0  0  0  0  0  0  0  0  0  0  0
   -3.3729    5.1254  -16.8993 O   0  0  0  0  0  0  0  0  0  0  0  0
   -3.1152    5.0269  -19.1166 O   0  0  0  0  0  0  0  0  0  0  0  0
   -1.7353    5.3945  -18.9894 C   0  0  0  0  0  0  0  0  0  0  0  0
   -1.5721    6.8255  -19.4390 C   0  0  0  0  0  0  0  0  0  0  0  0
   -0.6011    7.1563  -20.3915 C   0  0  0  0  0  0  0  0  0  0  0  0
   -0.4466    8.4781  -20.8120 C   0  0  0  0  0  0  0  0  0  0  0  0
   -1.2573    9.4818  -20.2841 C   0  0  0  0  0  0  0  0  0  0  0  0
   -2.2153    9.1688  -19.3241 C   0  0  0  0  0  0  0  0  0  0  0  0
   -2.3646    7.8503  -18.8963 C   0  0  0  0  0  0  0  0  0  0  0  0
   -6.4524    5.0964  -16.3041 C   0  0  0  0  0  0  0  0  0  0  0  0
   -8.0500    3.1545  -11.1378 C   0  0  0  0  0  0  0  0  0  0  0  0
   -8.0986    3.1506   -9.7382 C   0  0  0  0  0  0  0  0  0  0  0  0
   -8.7887    5.4720   -6.7184 C   0  0  0  0  0  0  0  0  0  0  0  0
   -8.5072    5.4843   -5.2160 C   0  0  0  0  0  0  0  0  0  0  0  0
   -8.6162    4.1185   -4.5759 C   0  0  0  0  0  0  0  0  0  0  0  0
   -8.8622    3.9956   -3.3771 O   0  0  0  0  0  0  0  0  0  0  0  0
   -8.3853    3.0363   -5.3799 N   0  0  0  0  0  0  0  0  0  0  0  0
   -8.5665    3.0704   -6.7455 C   0  0  0  0  0  0  0  0  0  0  0  0
   -9.2464    2.1947   -7.2734 O   0  0  0  0  0  0  0  0  0  0  0  0
  1  2  1  0
  3  2  1  6
  3  4  1  0
  4  5  2  0
  5  6  1  0
  6  7  2  0
  7  8  1  0
  8  9  1  0
  9 10  2  0
  9 11  1  0
 11 12  2  0
 12 13  1  0
 13 14  1  0
 13 15  2  0
 15 16  1  0
 16 17  1  0
 17 18  1  0
 18 19  2  0
 18 20  1  0
 20 21  1  0
 21 22  1  0
 22 23  2  0
 23 24  1  0
 24 25  2  0
 25 26  1  0
 26 27  2  0
 16 28  2  0
  7 29  1  0
 29 30  2  0
  3 31  1  0
 31 32  1  0
 32 33  1  0
 33 34  2  0
 33 35  1  0
 35 36  1  0
 36 37  2  0
 36  3  1  0
 30  4  1  0
 28 11  1  0
 27 22  1  0
M  END
>  <name>  (151) 
P140095

>  <alias>  (151) 
None

>  <smina_score_min>  (151) 
-8.116

>  <exports>  (151) 
['/opt/xchem-fragalysis-2/maxwin/BulkDock/OUTPUTS/openbind_xx01zvns2b_c2_elabs_1LOUTNY.sdf', '/opt/xchem-fragalysis-2/maxwin/BulkDock/OUTPUTS/openbind_xx01zvns2b_c2_elabs_1LSYIIV.sdf', '/opt/xchem-fragalysis-2/maxwin/openbind-hippo/xx01zvns2b/cycle_02/gnina/openbind_xx01zvns2b_c2_elabs_scored_6.2plus_products.sdf']

>  <tags>  (151) 
syndirella_placed,openbind_xx01zvns2b_c2_elabs,openbind_xx01zvns2b_c2_elabs_scored_6.2plus,syndirella_product,openbind_xx01zvns2b_c2_elabs_scored,openbind_xx01zvns2b_c2_elabs_scored_top80percent,BulkDock Fragalysis export,openbind_xx01zvns2b_c2_elabs_scored_top80percent_despaghettified

>  <subsites>  (151) 
1 - Z4590/B/203/1

>  <smiles>  (151) 
CC[C@]1(c2ccc(NC(=O)c3cc(Cl)cc(NC(=O)OCc4ccccc4)c3)cc2)CCC(=O)NC1=O

>  <HIPPO Pose ID>  (151) 
140095

>  <energy_score>  (151) 
-68.489937

>  <inchikey>  (151) 
WOUKPGRXWNANMF-MUUNZHRXSA-N

>  <gnina_score_min>  (151) 
6.23

>  <gnina_score>  (151) 
6.076

>  <ref_mols>  (151) 
Z3024a

>  <HIPPO Compound ID>  (151) 
198871

>  <distance_score>  (151) 
0.473892

>  <rmsd(smina/fragmenstein)>  (151) 
1.33

>  <ref_pdb>  (151) 
Z3024a

>  <inspiration_score>  (151) 
None

$$$$
P140100
     RDKit          3D

 37 39  0  0  0  0  0  0  0  0999 V2000
   -7.0582    1.6615   -9.2873 C   0  0  0  0  0  0  0  0  0  0  0  0
   -8.3955    2.1668   -9.3772 O   0  0  0  0  0  0  0  0  0  0  0  0
   -8.3407    3.4107   -9.9258 C   0  0  0  0  0  0  0  0  0  0  0  0
   -8.2949    3.4890  -11.3202 C   0  0  0  0  0  0  0  0  0  0  0  0
   -8.0437    4.7024  -11.9584 C   0  0  0  0  0  0  0  0  0  0  0  0
   -7.8849    4.6067  -13.3468 N   0  0  0  0  0  0  0  0  0  0  0  0
   -7.4608    5.6686  -14.3830 C   0  0  0  0  0  0  0  0  0  0  0  0
   -7.1028    6.7690  -14.2353 O   0  0  0  0  0  0  0  0  0  0  0  0
   -7.5272    5.1165  -15.7511 C   0  0  0  0  0  0  0  0  0  0  0  0
   -8.7488    4.6920  -16.2647 C   0  0  0  0  0  0  0  0  0  0  0  0
   -8.8409    4.3791  -17.6151 C   0  0  0  0  0  0  0  0  0  0  0  0
  -10.3697    4.0089  -18.2905 Cl  0  0  0  0  0  0  0  0  0  0  0  0
   -7.7198    4.4335  -18.4363 C   0  0  0  0  0  0  0  0  0  0  0  0
   -6.4870    4.7895  -17.8936 C   0  0  0  0  0  0  0  0  0  0  0  0
   -5.3719    4.7849  -18.7155 N   0  0  0  0  0  0  0  0  0  0  0  0
   -3.8914    4.9276  -18.3785 C   0  0  0  0  0  0  0  0  0  0  0  0
   -3.3562    4.9957  -17.3504 O   0  0  0  0  0  0  0  0  0  0  0  0
   -3.2653    4.9938  -19.5821 O   0  0  0  0  0  0  0  0  0  0  0  0
   -1.8661    5.3049  -19.5262 C   0  0  0  0  0  0  0  0  0  0  0  0
   -1.6388    6.7857  -19.7319 C   0  0  0  0  0  0  0  0  0  0  0  0
   -2.4823    7.7594  -19.1722 C   0  0  0  0  0  0  0  0  0  0  0  0
   -2.2442    9.1180  -19.3806 C   0  0  0  0  0  0  0  0  0  0  0  0
   -1.1476    9.5225  -20.1352 C   0  0  0  0  0  0  0  0  0  0  0  0
   -0.2833    8.5699  -20.6707 C   0  0  0  0  0  0  0  0  0  0  0  0
   -0.5232    7.2104  -20.4657 C   0  0  0  0  0  0  0  0  0  0  0  0
   -6.3885    5.1512  -16.5523 C   0  0  0  0  0  0  0  0  0  0  0  0
   -7.9270    5.8456  -11.1621 C   0  0  0  0  0  0  0  0  0  0  0  0
   -7.5982    7.0735  -11.6652 O   0  0  0  0  0  0  0  0  0  0  0  0
   -8.7658    7.8585  -11.8865 C   0  0  0  0  0  0  0  0  0  0  0  0
   -8.0370    5.7593   -9.7596 C   0  0  0  0  0  0  0  0  0  0  0  0
   -8.2584    4.5360   -9.1111 C   0  0  0  0  0  0  0  0  0  0  0  0
   -8.2719    4.4964   -7.5951 C   0  0  0  0  0  0  0  0  0  0  0  0
   -8.9799    3.3265   -6.8930 C   0  0  0  0  0  0  0  0  0  0  0  0
   -9.0481    3.4887   -5.4583 N   0  0  0  0  0  0  0  0  0  0  0  0
   -9.5347    4.6842   -4.6040 C   0  0  0  0  0  0  0  0  0  0  0  0
   -9.2163    4.3541   -3.1608 C   0  0  0  0  0  0  0  0  0  0  0  0
  -10.0270    5.6927   -4.9251 O   0  0  0  0  0  0  0  0  0  0  0  0
  1  2  1  0
  2  3  1  0
  3  4  2  0
  4  5  1  0
  5  6  1  0
  6  7  1  0
  7  8  2  0
  7  9  1  0
  9 10  2  0
 10 11  1  0
 11 12  1  0
 11 13  2  0
 13 14  1  0
 14 15  1  0
 15 16  1  0
 16 17  2  0
 16 18  1  0
 18 19  1  0
 19 20  1  0
 20 21  2  0
 21 22  1  0
 22 23  2  0
 23 24  1  0
 24 25  2  0
 14 26  2  0
  5 27  2  0
 27 28  1  0
 28 29  1  0
 27 30  1  0
 30 31  2  0
 31 32  1  0
 32 33  1  0
 33 34  1  0
 34 35  1  0
 35 36  1  0
 35 37  2  0
 31  3  1  0
 26  9  1  0
 25 20  1  0
M  END
>  <name>  (152) 
P140100

>  <alias>  (152) 
None

>  <smina_score_min>  (152) 
-7.121

>  <exports>  (152) 
['/opt/xchem-fragalysis-2/maxwin/BulkDock/OUTPUTS/openbind_xx01zvns2b_c2_elabs_1LOUTNY.sdf', '/opt/xchem-fragalysis-2/maxwin/BulkDock/OUTPUTS/openbind_xx01zvns2b_c2_elabs_1LSYIIV.sdf', '/opt/xchem-fragalysis-2/maxwin/openbind-hippo/xx01zvns2b/cycle_02/gnina/openbind_xx01zvns2b_c2_elabs_scored_6.2plus_products.sdf']

>  <tags>  (152) 
syndirella_placed,openbind_xx01zvns2b_c2_elabs,openbind_xx01zvns2b_c2_elabs_scored_6.2plus,syndirella_product,openbind_xx01zvns2b_c2_elabs_scored,openbind_xx01zvns2b_c2_elabs_scored_top80percent,BulkDock Fragalysis export,openbind_xx01zvns2b_c2_elabs_scored_top80percent_despaghettified

>  <subsites>  (152) 
1 - Z4590/B/203/1

>  <smiles>  (152) 
COc1cc(NC(=O)c2cc(Cl)cc(NC(=O)OCc3ccccc3)c2)c(OC)cc1CCNC(C)=O

>  <HIPPO Pose ID>  (152) 
140100

>  <energy_score>  (152) 
-3.479769

>  <inchikey>  (152) 
MBEDVGSKSZISMP-UHFFFAOYSA-N

>  <gnina_score_min>  (152) 
6.256

>  <gnina_score>  (152) 
6.273

>  <ref_mols>  (152) 
Z3024a

>  <HIPPO Compound ID>  (152) 
198874

>  <distance_score>  (152) 
0.544251

>  <rmsd(smina/fragmenstein)>  (152) 
1.3

>  <ref_pdb>  (152) 
Z3024a

>  <inspiration_score>  (152) 
None

$$$$
P140103
     RDKit          3D

 38 41  0  0  0  0  0  0  0  0999 V2000
   -6.0907    4.8236   -9.5631 C   0  0  0  0  0  0  0  0  0  0  0  0
   -7.3698    4.0050   -9.7947 C   0  0  2  0  0  0  0  0  0  0  0  0
   -8.2168    3.8318   -8.5376 C   0  0  0  0  0  0  0  0  0  0  0  0
   -8.3965    4.8724   -7.6102 C   0  0  0  0  0  0  0  0  0  0  0  0
   -9.0696    4.6510   -6.4007 C   0  0  0  0  0  0  0  0  0  0  0  0
   -9.5835    3.3793   -6.1143 C   0  0  0  0  0  0  0  0  0  0  0  0
  -10.3299    3.1555   -4.8779 N   0  0  0  0  0  0  0  0  0  0  0  0
  -10.1503    3.9629   -3.9517 O   0  0  0  0  0  0  0  0  0  0  0  0
  -11.1217    2.1979   -4.8367 O   0  0  0  0  0  0  0  0  0  0  0  0
   -9.4487    2.3409   -7.0267 C   0  0  0  0  0  0  0  0  0  0  0  0
   -8.7831    2.5775   -8.2275 C   0  0  0  0  0  0  0  0  0  0  0  0
   -6.9860    2.7129  -10.3291 N   0  0  0  0  0  0  0  0  0  0  0  0
   -7.3480    2.5551  -11.6396 C   0  0  0  0  0  0  0  0  0  0  0  0
   -6.9967    1.6224  -12.3481 O   0  0  0  0  0  0  0  0  0  0  0  0
   -8.0934    3.6425  -12.0134 N   0  0  0  0  0  0  0  0  0  0  0  0
   -8.1402    3.9362  -13.3409 N   0  0  0  0  0  0  0  0  0  0  0  0
   -7.3806    4.9971  -14.1573 C   0  0  0  0  0  0  0  0  0  0  0  0
   -6.6523    5.8383  -13.8109 O   0  0  0  0  0  0  0  0  0  0  0  0
   -7.5731    4.8053  -15.6214 C   0  0  0  0  0  0  0  0  0  0  0  0
   -8.8126    4.5073  -16.1804 C   0  0  0  0  0  0  0  0  0  0  0  0
   -8.9268    4.3726  -17.5615 C   0  0  0  0  0  0  0  0  0  0  0  0
  -10.4631    4.0858  -18.2630 Cl  0  0  0  0  0  0  0  0  0  0  0  0
   -7.8171    4.5090  -18.3870 C   0  0  0  0  0  0  0  0  0  0  0  0
   -6.5752    4.7857  -17.8261 C   0  0  0  0  0  0  0  0  0  0  0  0
   -5.4731    4.8931  -18.6611 N   0  0  0  0  0  0  0  0  0  0  0  0
   -3.9822    4.9325  -18.3360 C   0  0  0  0  0  0  0  0  0  0  0  0
   -3.4349    4.9586  -17.3121 O   0  0  0  0  0  0  0  0  0  0  0  0
   -3.3635    4.9986  -19.5441 O   0  0  0  0  0  0  0  0  0  0  0  0
   -1.9535    5.2636  -19.4975 C   0  0  0  0  0  0  0  0  0  0  0  0
   -1.6847    6.7367  -19.7118 C   0  0  0  0  0  0  0  0  0  0  0  0
   -2.5060    7.7355  -19.1628 C   0  0  0  0  0  0  0  0  0  0  0  0
   -2.2330    9.0863  -19.3795 C   0  0  0  0  0  0  0  0  0  0  0  0
   -1.1229    9.4579  -20.1312 C   0  0  0  0  0  0  0  0  0  0  0  0
   -0.2799    8.4800  -20.6554 C   0  0  0  0  0  0  0  0  0  0  0  0
   -0.5549    7.1281  -20.4424 C   0  0  0  0  0  0  0  0  0  0  0  0
   -6.4538    4.9494  -16.4480 C   0  0  0  0  0  0  0  0  0  0  0  0
   -8.1129    4.6002  -11.0180 C   0  0  0  0  0  0  0  0  0  0  0  0
   -8.5598    5.7403  -11.0879 O   0  0  0  0  0  0  0  0  0  0  0  0
  2  1  1  1
  2  3  1  0
  3  4  2  0
  4  5  1  0
  5  6  2  0
  6  7  1  0
  7  8  2  0
  7  9  1  0
  6 10  1  0
 10 11  2  0
  2 12  1  0
 12 13  1  0
 13 14  2  0
 13 15  1  0
 15 16  1  0
 16 17  1  0
 17 18  2  0
 17 19  1  0
 19 20  2  0
 20 21  1  0
 21 22  1  0
 21 23  2  0
 23 24  1  0
 24 25  1  0
 25 26  1  0
 26 27  2  0
 26 28  1  0
 28 29  1  0
 29 30  1  0
 30 31  2  0
 31 32  1  0
 32 33  2  0
 33 34  1  0
 34 35  2  0
 24 36  2  0
 15 37  1  0
 37 38  2  0
 37  2  1  0
 11  3  1  0
 36 19  1  0
 35 30  1  0
M  CHG  2   7   1   9  -1
M  END
>  <name>  (153) 
P140103

>  <alias>  (153) 
None

>  <smina_score_min>  (153) 
-9.249

>  <exports>  (153) 
['/opt/xchem-fragalysis-2/maxwin/BulkDock/OUTPUTS/openbind_xx01zvns2b_c2_elabs_1LOUTNY.sdf', '/opt/xchem-fragalysis-2/maxwin/BulkDock/OUTPUTS/openbind_xx01zvns2b_c2_elabs_1LSYIIV.sdf', '/opt/xchem-fragalysis-2/maxwin/openbind-hippo/xx01zvns2b/cycle_02/gnina/openbind_xx01zvns2b_c2_elabs_scored_6.2plus_products.sdf']

>  <tags>  (153) 
syndirella_placed,openbind_xx01zvns2b_c2_elabs,openbind_xx01zvns2b_c2_elabs_scored_6.2plus,syndirella_product,openbind_xx01zvns2b_c2_elabs_scored,openbind_xx01zvns2b_c2_elabs_scored_top80percent,BulkDock Fragalysis export,openbind_xx01zvns2b_c2_elabs_scored_top80percent_despaghettified

>  <subsites>  (153) 
1 - Z4590/B/203/1

>  <smiles>  (153) 
C[C@]1(c2ccc([N+](=O)[O-])cc2)NC(=O)N(NC(=O)c2cc(Cl)cc(NC(=O)OCc3ccccc3)c2)C1=O

>  <HIPPO Pose ID>  (153) 
140103

>  <energy_score>  (153) 
-47.543725

>  <inchikey>  (153) 
PAGLUTCJSPHNPP-RUZDIDTESA-N

>  <gnina_score_min>  (153) 
6.435

>  <gnina_score>  (153) 
6.409

>  <ref_mols>  (153) 
Z3024a

>  <HIPPO Compound ID>  (153) 
198452

>  <distance_score>  (153) 
0.76311

>  <rmsd(smina/fragmenstein)>  (153) 
0.954

>  <ref_pdb>  (153) 
Z3024a

>  <inspiration_score>  (153) 
None

$$$$
P140108
     RDKit          3D

 38 41  0  0  0  0  0  0  0  0999 V2000
   -6.5175    5.4851   -7.1093 O   0  0  0  0  0  0  0  0  0  0  0  0
   -7.2978    4.6849   -6.6822 C   0  0  0  0  0  0  0  0  0  0  0  0
   -8.2538    3.9129   -7.6118 C   0  0  0  0  0  0  0  0  0  0  0  0
   -8.0407    4.0639   -9.1025 C   0  0  0  0  0  0  0  0  0  0  0  0
   -7.9833    5.3160   -9.7272 C   0  0  0  0  0  0  0  0  0  0  0  0
   -7.8326    5.4192  -11.1162 C   0  0  0  0  0  0  0  0  0  0  0  0
   -7.7611    4.2712  -11.9032 C   0  0  0  0  0  0  0  0  0  0  0  0
   -7.6128    4.3202  -13.2884 N   0  0  0  0  0  0  0  0  0  0  0  0
   -7.4471    5.4302  -14.1767 C   0  0  0  0  0  0  0  0  0  0  0  0
   -7.3141    6.5994  -13.9543 O   0  0  0  0  0  0  0  0  0  0  0  0
   -7.4487    5.0253  -15.5964 C   0  0  0  0  0  0  0  0  0  0  0  0
   -8.6442    4.6163  -16.1819 C   0  0  0  0  0  0  0  0  0  0  0  0
   -8.6784    4.3909  -17.5517 C   0  0  0  0  0  0  0  0  0  0  0  0
  -10.1665    3.9967  -18.3047 Cl  0  0  0  0  0  0  0  0  0  0  0  0
   -7.5285    4.5296  -18.3250 C   0  0  0  0  0  0  0  0  0  0  0  0
   -6.3221    4.8893  -17.7211 C   0  0  0  0  0  0  0  0  0  0  0  0
   -5.1860    4.9546  -18.5204 N   0  0  0  0  0  0  0  0  0  0  0  0
   -3.8291    5.1704  -18.1895 C   0  0  0  0  0  0  0  0  0  0  0  0
   -3.2907    5.2757  -17.1300 O   0  0  0  0  0  0  0  0  0  0  0  0
   -3.1642    5.2078  -19.3753 O   0  0  0  0  0  0  0  0  0  0  0  0
   -1.7497    5.4439  -19.3034 C   0  0  0  0  0  0  0  0  0  0  0  0
   -1.4698    6.8768  -19.6807 C   0  0  0  0  0  0  0  0  0  0  0  0
   -1.8922    7.9284  -18.8535 C   0  0  0  0  0  0  0  0  0  0  0  0
   -1.6478    9.2549  -19.2105 C   0  0  0  0  0  0  0  0  0  0  0  0
   -0.9711    9.5442  -20.3931 C   0  0  0  0  0  0  0  0  0  0  0  0
   -0.5358    8.5078  -21.2172 C   0  0  0  0  0  0  0  0  0  0  0  0
   -0.7834    7.1802  -20.8636 C   0  0  0  0  0  0  0  0  0  0  0  0
   -6.2834    5.1597  -16.3535 C   0  0  0  0  0  0  0  0  0  0  0  0
   -7.8392    3.0213  -11.2931 C   0  0  0  0  0  0  0  0  0  0  0  0
   -7.9769    2.9187   -9.9062 C   0  0  0  0  0  0  0  0  0  0  0  0
   -7.5958    4.2933   -5.3274 N   0  0  0  0  0  0  0  0  0  0  0  0
   -6.9888    4.6693   -4.0874 C   0  0  0  0  0  0  0  0  0  0  0  0
   -7.9883    5.2485   -3.1263 C   0  0  0  0  0  0  0  0  0  0  0  0
   -8.9038    4.4210   -2.4613 C   0  0  0  0  0  0  0  0  0  0  0  0
   -9.8174    4.9618   -1.5552 C   0  0  0  0  0  0  0  0  0  0  0  0
   -9.8314    6.3338   -1.3111 C   0  0  0  0  0  0  0  0  0  0  0  0
   -8.9406    7.1687   -1.9817 C   0  0  0  0  0  0  0  0  0  0  0  0
   -8.0258    6.6297   -2.8878 C   0  0  0  0  0  0  0  0  0  0  0  0
  1  2  2  0
  2  3  1  0
  3  4  1  0
  4  5  2  0
  5  6  1  0
  6  7  2  0
  7  8  1  0
  8  9  1  0
  9 10  2  0
  9 11  1  0
 11 12  2  0
 12 13  1  0
 13 14  1  0
 13 15  2  0
 15 16  1  0
 16 17  1  0
 17 18  1  0
 18 19  2  0
 18 20  1  0
 20 21  1  0
 21 22  1  0
 22 23  2  0
 23 24  1  0
 24 25  2  0
 25 26  1  0
 26 27  2  0
 16 28  2  0
  7 29  1  0
 29 30  2  0
  2 31  1  0
 31 32  1  0
 32 33  1  0
 33 34  2  0
 34 35  1  0
 35 36  2  0
 36 37  1  0
 37 38  2  0
 30  4  1  0
 38 33  1  0
 28 11  1  0
 27 22  1  0
M  END
>  <name>  (154) 
P140108

>  <alias>  (154) 
None

>  <smina_score_min>  (154) 
-7.654

>  <exports>  (154) 
['/opt/xchem-fragalysis-2/maxwin/BulkDock/OUTPUTS/openbind_xx01zvns2b_c2_elabs_1LOUTNY.sdf', '/opt/xchem-fragalysis-2/maxwin/BulkDock/OUTPUTS/openbind_xx01zvns2b_c2_elabs_1LSYIIV.sdf', '/opt/xchem-fragalysis-2/maxwin/openbind-hippo/xx01zvns2b/cycle_02/gnina/openbind_xx01zvns2b_c2_elabs_scored_6.2plus_products.sdf']

>  <tags>  (154) 
syndirella_placed,openbind_xx01zvns2b_c2_elabs,openbind_xx01zvns2b_c2_elabs_scored_6.2plus,syndirella_product,openbind_xx01zvns2b_c2_elabs_scored,openbind_xx01zvns2b_c2_elabs_scored_top80percent,BulkDock Fragalysis export,openbind_xx01zvns2b_c2_elabs_scored_top80percent_despaghettified

>  <subsites>  (154) 
1 - Z4590/B/203/1

>  <smiles>  (154) 
O=C(Cc1ccc(NC(=O)c2cc(Cl)cc(NC(=O)OCc3ccccc3)c2)cc1)NCc1ccccc1

>  <HIPPO Pose ID>  (154) 
140108

>  <energy_score>  (154) 
-42.05503

>  <inchikey>  (154) 
HKRZCHRPSZWRTR-UHFFFAOYSA-N

>  <gnina_score_min>  (154) 
6.207

>  <gnina_score>  (154) 
5.918

>  <ref_mols>  (154) 
Z3024a

>  <HIPPO Compound ID>  (154) 
198883

>  <distance_score>  (154) 
0.823237

>  <rmsd(smina/fragmenstein)>  (154) 
1.148

>  <ref_pdb>  (154) 
Z3024a

>  <inspiration_score>  (154) 
None

$$$$
P140111
     RDKit          3D

 38 41  0  0  0  0  0  0  0  0999 V2000
   -4.5718    4.2456   -2.5711 C   0  0  0  0  0  0  0  0  0  0  0  0
   -5.9085    4.8465   -3.0368 C   0  0  0  0  0  0  0  0  0  0  0  0
   -5.6124    6.2566   -3.5759 C   0  0  0  0  0  0  0  0  0  0  0  0
   -6.8605    4.8968   -1.8328 C   0  0  0  0  0  0  0  0  0  0  0  0
   -6.3922    3.9707   -4.1037 O   0  0  0  0  0  0  0  0  0  0  0  0
   -7.5524    4.3257   -4.7523 C   0  0  0  0  0  0  0  0  0  0  0  0
   -8.2574    5.1571   -4.3543 O   0  0  0  0  0  0  0  0  0  0  0  0
   -7.6097    3.5147   -6.0416 N   0  0  0  0  0  0  0  0  0  0  0  0
   -8.5019    3.6156   -7.1787 C   0  0  1  0  0  0  0  0  0  0  0  0
   -8.4471    5.0822   -7.6399 C   0  0  0  0  0  0  0  0  0  0  0  0
   -8.3274    4.9943   -9.1155 C   0  0  0  0  0  0  0  0  0  0  0  0
   -8.2695    6.0770   -9.9688 C   0  0  0  0  0  0  0  0  0  0  0  0
   -8.0972    5.8335  -11.3227 C   0  0  0  0  0  0  0  0  0  0  0  0
   -8.0079    4.5232  -11.8189 C   0  0  0  0  0  0  0  0  0  0  0  0
   -7.8186    4.3556  -13.1911 N   0  0  0  0  0  0  0  0  0  0  0  0
   -7.5073    5.3932  -14.2969 C   0  0  0  0  0  0  0  0  0  0  0  0
   -7.2846    6.5384  -14.2207 O   0  0  0  0  0  0  0  0  0  0  0  0
   -7.5505    4.8274  -15.6543 C   0  0  0  0  0  0  0  0  0  0  0  0
   -8.7821    4.4784  -16.1969 C   0  0  0  0  0  0  0  0  0  0  0  0
   -8.8832    4.2894  -17.5698 C   0  0  0  0  0  0  0  0  0  0  0  0
  -10.4204    4.0218  -18.2753 Cl  0  0  0  0  0  0  0  0  0  0  0  0
   -7.7636    4.3934  -18.3894 C   0  0  0  0  0  0  0  0  0  0  0  0
   -6.5236    4.6872  -17.8267 C   0  0  0  0  0  0  0  0  0  0  0  0
   -5.4146    4.7463  -18.6563 N   0  0  0  0  0  0  0  0  0  0  0  0
   -3.9328    4.8890  -18.3225 C   0  0  0  0  0  0  0  0  0  0  0  0
   -3.3899    4.9037  -17.2960 O   0  0  0  0  0  0  0  0  0  0  0  0
   -3.3152    5.0088  -19.5262 O   0  0  0  0  0  0  0  0  0  0  0  0
   -1.9107    5.2977  -19.4732 C   0  0  0  0  0  0  0  0  0  0  0  0
   -1.6716    6.7744  -19.6882 C   0  0  0  0  0  0  0  0  0  0  0  0
   -2.5043    7.7544  -19.1236 C   0  0  0  0  0  0  0  0  0  0  0  0
   -2.2609    9.1105  -19.3411 C   0  0  0  0  0  0  0  0  0  0  0  0
   -1.1695    9.5054  -20.1087 C   0  0  0  0  0  0  0  0  0  0  0  0
   -0.3156    8.5458  -20.6488 C   0  0  0  0  0  0  0  0  0  0  0  0
   -0.5610    7.1885  -20.4354 C   0  0  0  0  0  0  0  0  0  0  0  0
   -6.4156    4.9270  -16.4591 C   0  0  0  0  0  0  0  0  0  0  0  0
   -8.0865    3.4292  -10.9423 C   0  0  0  0  0  0  0  0  0  0  0  0
   -8.2192    3.6839   -9.5755 C   0  0  0  0  0  0  0  0  0  0  0  0
   -8.1934    2.7211   -8.4162 C   0  0  0  0  0  0  0  0  0  0  0  0
  1  2  1  0
  2  3  1  0
  2  4  1  0
  2  5  1  0
  5  6  1  0
  6  7  2  0
  6  8  1  0
  9  8  1  1
  9 10  1  0
 10 11  1  0
 11 12  2  0
 12 13  1  0
 13 14  2  0
 14 15  1  0
 15 16  1  0
 16 17  2  0
 16 18  1  0
 18 19  2  0
 19 20  1  0
 20 21  1  0
 20 22  2  0
 22 23  1  0
 23 24  1  0
 24 25  1  0
 25 26  2  0
 25 27  1  0
 27 28  1  0
 28 29  1  0
 29 30  2  0
 30 31  1  0
 31 32  2  0
 32 33  1  0
 33 34  2  0
 23 35  2  0
 14 36  1  0
 36 37  2  0
 37 38  1  0
 38  9  1  0
 37 11  1  0
 35 18  1  0
 34 29  1  0
M  END
>  <name>  (155) 
P140111

>  <alias>  (155) 
None

>  <smina_score_min>  (155) 
-7.591

>  <exports>  (155) 
['/opt/xchem-fragalysis-2/maxwin/BulkDock/OUTPUTS/openbind_xx01zvns2b_c2_elabs_1LOUTNY.sdf', '/opt/xchem-fragalysis-2/maxwin/BulkDock/OUTPUTS/openbind_xx01zvns2b_c2_elabs_1LSYIIV.sdf', '/opt/xchem-fragalysis-2/maxwin/openbind-hippo/xx01zvns2b/cycle_02/gnina/openbind_xx01zvns2b_c2_elabs_scored_6.2plus_products.sdf']

>  <tags>  (155) 
syndirella_placed,openbind_xx01zvns2b_c2_elabs,openbind_xx01zvns2b_c2_elabs_scored_6.2plus,syndirella_product,openbind_xx01zvns2b_c2_elabs_scored,openbind_xx01zvns2b_c2_elabs_scored_top80percent,BulkDock Fragalysis export,openbind_xx01zvns2b_c2_elabs_scored_top80percent_despaghettified

>  <subsites>  (155) 
1 - Z4590/B/203/1

>  <smiles>  (155) 
CC(C)(C)OC(=O)N[C@H]1Cc2ccc(NC(=O)c3cc(Cl)cc(NC(=O)OCc4ccccc4)c3)cc2C1

>  <HIPPO Pose ID>  (155) 
140111

>  <energy_score>  (155) 
-36.038101

>  <inchikey>  (155) 
QAQKISWJHFKLGD-DEOSSOPVSA-N

>  <gnina_score_min>  (155) 
6.265

>  <gnina_score>  (155) 
6.209

>  <ref_mols>  (155) 
Z3024a

>  <HIPPO Compound ID>  (155) 
198887

>  <distance_score>  (155) 
0.590973

>  <rmsd(smina/fragmenstein)>  (155) 
0.938

>  <ref_pdb>  (155) 
Z3024a

>  <inspiration_score>  (155) 
None

$$$$
P140112
     RDKit          3D

 38 40  0  0  0  0  0  0  0  0999 V2000
   -5.5276    5.6529   -7.3739 C   0  0  0  0  0  0  0  0  0  0  0  0
   -6.1463    5.2729   -6.0817 N   0  0  0  0  0  0  0  0  0  0  0  0
   -7.0087    4.3926   -7.0077 C   0  0  0  0  0  0  0  0  0  0  0  0
   -8.2556    4.9802   -7.7312 C   0  0  0  0  0  0  0  0  0  0  0  0
   -8.1637    4.8631   -9.2379 C   0  0  0  0  0  0  0  0  0  0  0  0
   -8.2892    3.6209   -9.8767 C   0  0  0  0  0  0  0  0  0  0  0  0
   -8.1544    3.5177  -11.2670 C   0  0  0  0  0  0  0  0  0  0  0  0
   -7.8729    4.6510  -12.0299 C   0  0  0  0  0  0  0  0  0  0  0  0
   -7.7011    4.5255  -13.4074 N   0  0  0  0  0  0  0  0  0  0  0  0
   -7.2953    5.4826  -14.3963 C   0  0  0  0  0  0  0  0  0  0  0  0
   -6.9234    6.6164  -14.2841 O   0  0  0  0  0  0  0  0  0  0  0  0
   -7.4106    4.9827  -15.7832 C   0  0  0  0  0  0  0  0  0  0  0  0
   -8.6632    4.6003  -16.2609 C   0  0  0  0  0  0  0  0  0  0  0  0
   -8.8184    4.3550  -17.6183 C   0  0  0  0  0  0  0  0  0  0  0  0
  -10.3781    4.0313  -18.2476 Cl  0  0  0  0  0  0  0  0  0  0  0  0
   -7.7343    4.4435  -18.4856 C   0  0  0  0  0  0  0  0  0  0  0  0
   -6.4734    4.7887  -17.9974 C   0  0  0  0  0  0  0  0  0  0  0  0
   -5.4211    4.8388  -18.9055 N   0  0  0  0  0  0  0  0  0  0  0  0
   -4.0312    5.0123  -18.7089 C   0  0  0  0  0  0  0  0  0  0  0  0
   -3.3870    5.0833  -17.7073 O   0  0  0  0  0  0  0  0  0  0  0  0
   -3.4881    5.0438  -19.9584 O   0  0  0  0  0  0  0  0  0  0  0  0
   -2.0618    5.2105  -20.0185 C   0  0  0  0  0  0  0  0  0  0  0  0
   -1.6473    6.6652  -20.0255 C   0  0  0  0  0  0  0  0  0  0  0  0
   -0.2924    6.9817  -19.8480 C   0  0  0  0  0  0  0  0  0  0  0  0
    0.1360    8.3101  -19.8610 C   0  0  0  0  0  0  0  0  0  0  0  0
   -0.7833    9.3385  -20.0566 C   0  0  0  0  0  0  0  0  0  0  0  0
   -2.1301    9.0389  -20.2463 C   0  0  0  0  0  0  0  0  0  0  0  0
   -2.5590    7.7102  -20.2383 C   0  0  0  0  0  0  0  0  0  0  0  0
   -6.3106    5.0752  -16.6430 C   0  0  0  0  0  0  0  0  0  0  0  0
   -7.7684    5.8911  -11.4008 C   0  0  0  0  0  0  0  0  0  0  0  0
   -7.9278    5.9995  -10.0187 C   0  0  0  0  0  0  0  0  0  0  0  0
   -6.9692    6.0060   -5.2038 C   0  0  0  0  0  0  0  0  0  0  0  0
   -7.4551    7.0956   -5.3179 O   0  0  0  0  0  0  0  0  0  0  0  0
   -7.1215    5.2415   -4.0837 O   0  0  0  0  0  0  0  0  0  0  0  0
   -7.8964    5.7134   -2.9532 C   0  0  0  0  0  0  0  0  0  0  0  0
   -7.8514    4.5645   -1.9352 C   0  0  0  0  0  0  0  0  0  0  0  0
   -9.3587    5.9571   -3.3347 C   0  0  0  0  0  0  0  0  0  0  0  0
   -7.2536    6.9517   -2.3184 C   0  0  0  0  0  0  0  0  0  0  0  0
  1  2  1  0
  2  3  1  0
  3  4  1  0
  4  5  1  0
  5  6  2  0
  6  7  1  0
  7  8  2  0
  8  9  1  0
  9 10  1  0
 10 11  2  0
 10 12  1  0
 12 13  2  0
 13 14  1  0
 14 15  1  0
 14 16  2  0
 16 17  1  0
 17 18  1  0
 18 19  1  0
 19 20  2  0
 19 21  1  0
 21 22  1  0
 22 23  1  0
 23 24  2  0
 24 25  1  0
 25 26  2  0
 26 27  1  0
 27 28  2  0
 17 29  2  0
  8 30  1  0
 30 31  2  0
  2 32  1  0
 32 33  2  0
 32 34  1  0
 34 35  1  0
 35 36  1  0
 35 37  1  0
 35 38  1  0
 31  5  1  0
 29 12  1  0
 28 23  1  0
M  END
>  <name>  (156) 
P140112

>  <alias>  (156) 
None

>  <smina_score_min>  (156) 
-7.392

>  <exports>  (156) 
['/opt/xchem-fragalysis-2/maxwin/BulkDock/OUTPUTS/openbind_xx01zvns2b_c2_elabs_1LOUTNY.sdf', '/opt/xchem-fragalysis-2/maxwin/BulkDock/OUTPUTS/openbind_xx01zvns2b_c2_elabs_1LSYIIV.sdf', '/opt/xchem-fragalysis-2/maxwin/openbind-hippo/xx01zvns2b/cycle_02/gnina/openbind_xx01zvns2b_c2_elabs_scored_6.2plus_products.sdf']

>  <tags>  (156) 
syndirella_placed,openbind_xx01zvns2b_c2_elabs,openbind_xx01zvns2b_c2_elabs_scored_6.2plus,syndirella_product,openbind_xx01zvns2b_c2_elabs_scored,openbind_xx01zvns2b_c2_elabs_scored_top80percent,BulkDock Fragalysis export,openbind_xx01zvns2b_c2_elabs_scored_top80percent_despaghettified

>  <subsites>  (156) 
1 - Z4590/B/203/1

>  <smiles>  (156) 
CN(CCc1ccc(NC(=O)c2cc(Cl)cc(NC(=O)OCc3ccccc3)c2)cc1)C(=O)OC(C)(C)C

>  <HIPPO Pose ID>  (156) 
140112

>  <energy_score>  (156) 
-0.295793

>  <inchikey>  (156) 
NGAFELIXZBNWAI-UHFFFAOYSA-N

>  <gnina_score_min>  (156) 
6.283

>  <gnina_score>  (156) 
6.021

>  <ref_mols>  (156) 
Z3024a

>  <HIPPO Compound ID>  (156) 
198888

>  <distance_score>  (156) 
1.033771

>  <rmsd(smina/fragmenstein)>  (156) 
1.282

>  <ref_pdb>  (156) 
Z3024a

>  <inspiration_score>  (156) 
None

$$$$
P140113
     RDKit          3D

 38 41  0  0  0  0  0  0  0  0999 V2000
   -8.8462    3.8924   -0.9331 C   0  0  0  0  0  0  0  0  0  0  0  0
   -8.2535    4.7430   -2.0670 C   0  0  0  0  0  0  0  0  0  0  0  0
   -6.7803    5.0254   -1.7462 C   0  0  0  0  0  0  0  0  0  0  0  0
   -9.0745    6.0384   -2.1552 C   0  0  0  0  0  0  0  0  0  0  0  0
   -8.3900    3.9372   -3.2715 O   0  0  0  0  0  0  0  0  0  0  0  0
   -8.0154    4.4539   -4.4808 C   0  0  0  0  0  0  0  0  0  0  0  0
   -7.5240    5.5025   -4.5957 O   0  0  0  0  0  0  0  0  0  0  0  0
   -8.4657    3.4453   -5.5438 N   0  0  0  0  0  0  0  0  0  0  0  0
   -8.3264    3.4681   -6.9324 C   0  0  0  0  0  0  0  0  0  0  0  0
   -8.9307    2.4995   -7.7257 C   0  0  0  0  0  0  0  0  0  0  0  0
   -8.8960    2.6139   -9.1303 C   0  0  0  0  0  0  0  0  0  0  0  0
   -8.2463    3.6733   -9.7958 C   0  0  0  0  0  0  0  0  0  0  0  0
   -8.4025    3.9317  -11.3652 C   0  0  0  0  0  0  0  0  0  0  0  0
   -7.3111    3.7704  -12.4036 C   0  0  0  0  0  0  0  0  0  0  0  0
   -8.0048    4.9591  -13.2047 N   0  0  0  0  0  0  0  0  0  0  0  0
   -7.0819    5.5388  -14.2387 C   0  0  0  0  0  0  0  0  0  0  0  0
   -6.3053    6.4217  -14.1583 O   0  0  0  0  0  0  0  0  0  0  0  0
   -7.2797    4.9391  -15.5933 C   0  0  0  0  0  0  0  0  0  0  0  0
   -8.5486    4.5771  -16.0610 C   0  0  0  0  0  0  0  0  0  0  0  0
   -8.7323    4.3392  -17.4257 C   0  0  0  0  0  0  0  0  0  0  0  0
  -10.2976    4.0256  -18.0624 Cl  0  0  0  0  0  0  0  0  0  0  0  0
   -7.6683    4.4305  -18.3174 C   0  0  0  0  0  0  0  0  0  0  0  0
   -6.3987    4.7344  -17.8409 C   0  0  0  0  0  0  0  0  0  0  0  0
   -5.3499    4.8216  -18.7434 N   0  0  0  0  0  0  0  0  0  0  0  0
   -3.8422    4.8647  -18.5111 C   0  0  0  0  0  0  0  0  0  0  0  0
   -3.2333    4.9114  -17.5234 O   0  0  0  0  0  0  0  0  0  0  0  0
   -3.3042    4.9245  -19.7582 O   0  0  0  0  0  0  0  0  0  0  0  0
   -1.9055    5.2371  -19.8001 C   0  0  0  0  0  0  0  0  0  0  0  0
   -1.6591    6.7304  -19.8714 C   0  0  0  0  0  0  0  0  0  0  0  0
   -2.6245    7.6869  -19.5156 C   0  0  0  0  0  0  0  0  0  0  0  0
   -2.3451    9.0517  -19.5954 C   0  0  0  0  0  0  0  0  0  0  0  0
   -1.0950    9.4802  -20.0294 C   0  0  0  0  0  0  0  0  0  0  0  0
   -0.1210    8.5450  -20.3724 C   0  0  0  0  0  0  0  0  0  0  0  0
   -0.3981    7.1796  -20.2878 C   0  0  0  0  0  0  0  0  0  0  0  0
   -6.2032    4.9933  -16.4863 C   0  0  0  0  0  0  0  0  0  0  0  0
   -8.2864    5.3842  -11.8088 C   0  0  0  0  0  0  0  0  0  0  0  0
   -7.5726    4.5753   -8.9526 C   0  0  0  0  0  0  0  0  0  0  0  0
   -7.6251    4.4908   -7.5563 C   0  0  0  0  0  0  0  0  0  0  0  0
  1  2  1  0
  2  3  1  0
  2  4  1  0
  2  5  1  0
  5  6  1  0
  6  7  2  0
  6  8  1  0
  8  9  1  0
  9 10  2  0
 10 11  1  0
 11 12  2  0
 12 13  1  0
 13 14  1  0
 14 15  1  0
 15 16  1  0
 16 17  2  0
 16 18  1  0
 18 19  2  0
 19 20  1  0
 20 21  1  0
 20 22  2  0
 22 23  1  0
 23 24  1  0
 24 25  1  0
 25 26  2  0
 25 27  1  0
 27 28  1  0
 28 29  1  0
 29 30  2  0
 30 31  1  0
 31 32  2  0
 32 33  1  0
 33 34  2  0
 23 35  2  0
 15 36  1  0
 12 37  1  0
 37 38  2  0
 38  9  1  0
 36 13  1  0
 35 18  1  0
 34 29  1  0
M  END
>  <name>  (157) 
P140113

>  <alias>  (157) 
None

>  <smina_score_min>  (157) 
-7.751

>  <exports>  (157) 
['/opt/xchem-fragalysis-2/maxwin/BulkDock/OUTPUTS/openbind_xx01zvns2b_c2_elabs_1LOUTNY.sdf', '/opt/xchem-fragalysis-2/maxwin/BulkDock/OUTPUTS/openbind_xx01zvns2b_c2_elabs_1LSYIIV.sdf', '/opt/xchem-fragalysis-2/maxwin/openbind-hippo/xx01zvns2b/cycle_02/gnina/openbind_xx01zvns2b_c2_elabs_scored_6.2plus_products.sdf']

>  <tags>  (157) 
syndirella_placed,openbind_xx01zvns2b_c2_elabs,openbind_xx01zvns2b_c2_elabs_scored_6.2plus,syndirella_product,openbind_xx01zvns2b_c2_elabs_scored,openbind_xx01zvns2b_c2_elabs_scored_top80percent,BulkDock Fragalysis export,openbind_xx01zvns2b_c2_elabs_scored_top80percent_despaghettified

>  <subsites>  (157) 
1 - Z4590/B/203/1

>  <smiles>  (157) 
CC(C)(C)OC(=O)Nc1ccc(C2CN(C(=O)c3cc(Cl)cc(NC(=O)OCc4ccccc4)c3)C2)cc1

>  <HIPPO Pose ID>  (157) 
140113

>  <energy_score>  (157) 
-29.774678

>  <inchikey>  (157) 
LXKFUWZXAXDEDD-UHFFFAOYSA-N

>  <gnina_score_min>  (157) 
6.22

>  <gnina_score>  (157) 
6.069

>  <ref_mols>  (157) 
Z3024a

>  <HIPPO Compound ID>  (157) 
198889

>  <distance_score>  (157) 
0.725707

>  <rmsd(smina/fragmenstein)>  (157) 
0.934

>  <ref_pdb>  (157) 
Z3024a

>  <inspiration_score>  (157) 
None

$$$$
P140116
     RDKit          3D

 39 41  0  0  0  0  0  0  0  0999 V2000
   -9.7109    9.0480  -12.2642 C   0  0  0  0  0  0  0  0  0  0  0  0
   -8.5185    8.3100  -11.6339 C   0  0  0  0  0  0  0  0  0  0  0  0
   -8.5027    8.6189  -10.1319 C   0  0  0  0  0  0  0  0  0  0  0  0
   -7.2406    8.7867  -12.3357 C   0  0  0  0  0  0  0  0  0  0  0  0
   -8.7592    6.8988  -11.8833 O   0  0  0  0  0  0  0  0  0  0  0  0
   -7.8605    5.9651  -11.4374 C   0  0  0  0  0  0  0  0  0  0  0  0
   -6.8478    6.2255  -10.8016 O   0  0  0  0  0  0  0  0  0  0  0  0
   -8.2999    4.5495  -11.8740 C   0  0  2  0  0  0  0  0  0  0  0  0
   -7.5702    3.4114  -11.1594 C   0  0  0  0  0  0  0  0  0  0  0  0
   -7.9226    3.3280   -9.6874 C   0  0  0  0  0  0  0  0  0  0  0  0
   -7.1820    4.0633   -8.7542 C   0  0  0  0  0  0  0  0  0  0  0  0
   -7.5029    4.0381   -7.3992 C   0  0  0  0  0  0  0  0  0  0  0  0
   -8.5513    3.2322   -6.9574 C   0  0  0  0  0  0  0  0  0  0  0  0
   -8.8869    3.2295   -5.5344 N   0  0  0  0  0  0  0  0  0  0  0  0
   -8.0042    3.5753   -4.7289 O   0  0  0  0  0  0  0  0  0  0  0  0
  -10.0623    2.9801   -5.2255 O   0  0  0  0  0  0  0  0  0  0  0  0
   -9.3012    2.4820   -7.8649 C   0  0  0  0  0  0  0  0  0  0  0  0
   -8.9903    2.5448   -9.2291 C   0  0  0  0  0  0  0  0  0  0  0  0
   -8.1932    4.4671  -13.3249 N   0  0  0  0  0  0  0  0  0  0  0  0
   -7.1755    5.0982  -14.2886 C   0  0  0  0  0  0  0  0  0  0  0  0
   -6.3066    5.8461  -14.0851 O   0  0  0  0  0  0  0  0  0  0  0  0
   -7.4291    4.7529  -15.7206 C   0  0  0  0  0  0  0  0  0  0  0  0
   -8.7066    4.5200  -16.2307 C   0  0  0  0  0  0  0  0  0  0  0  0
   -8.8793    4.3531  -17.6039 C   0  0  0  0  0  0  0  0  0  0  0  0
  -10.4533    4.1189  -18.2434 Cl  0  0  0  0  0  0  0  0  0  0  0  0
   -7.7988    4.4224  -18.4754 C   0  0  0  0  0  0  0  0  0  0  0  0
   -6.5240    4.6471  -17.9697 C   0  0  0  0  0  0  0  0  0  0  0  0
   -5.4525    4.6939  -18.8507 N   0  0  0  0  0  0  0  0  0  0  0  0
   -3.9552    4.8368  -18.5860 C   0  0  0  0  0  0  0  0  0  0  0  0
   -3.3661    4.8619  -17.5852 O   0  0  0  0  0  0  0  0  0  0  0  0
   -3.3919    4.9881  -19.8144 O   0  0  0  0  0  0  0  0  0  0  0  0
   -1.9847    5.2724  -19.8058 C   0  0  0  0  0  0  0  0  0  0  0  0
   -1.7170    6.7604  -19.8690 C   0  0  0  0  0  0  0  0  0  0  0  0
   -2.6104    7.7164  -19.3587 C   0  0  0  0  0  0  0  0  0  0  0  0
   -2.3213    9.0792  -19.4362 C   0  0  0  0  0  0  0  0  0  0  0  0
   -1.1286    9.5046  -20.0127 C   0  0  0  0  0  0  0  0  0  0  0  0
   -0.2190    8.5679  -20.4988 C   0  0  0  0  0  0  0  0  0  0  0  0
   -0.5074    7.2047  -20.4210 C   0  0  0  0  0  0  0  0  0  0  0  0
   -6.3398    4.8128  -16.5989 C   0  0  0  0  0  0  0  0  0  0  0  0
  1  2  1  0
  2  3  1  0
  2  4  1  0
  2  5  1  0
  5  6  1  0
  6  7  2  0
  6  8  1  0
  8  9  1  1
  9 10  1  0
 10 11  2  0
 11 12  1  0
 12 13  2  0
 13 14  1  0
 14 15  2  0
 14 16  1  0
 13 17  1  0
 17 18  2  0
  8 19  1  0
 19 20  1  0
 20 21  2  0
 20 22  1  0
 22 23  2  0
 23 24  1  0
 24 25  1  0
 24 26  2  0
 26 27  1  0
 27 28  1  0
 28 29  1  0
 29 30  2  0
 29 31  1  0
 31 32  1  0
 32 33  1  0
 33 34  2  0
 34 35  1  0
 35 36  2  0
 36 37  1  0
 37 38  2  0
 27 39  2  0
 18 10  1  0
 39 22  1  0
 38 33  1  0
M  CHG  2  14   1  16  -1
M  END
>  <name>  (158) 
P140116

>  <alias>  (158) 
None

>  <smina_score_min>  (158) 
-7.353

>  <exports>  (158) 
['/opt/xchem-fragalysis-2/maxwin/BulkDock/OUTPUTS/openbind_xx01zvns2b_c2_elabs_1LOUTNY.sdf', '/opt/xchem-fragalysis-2/maxwin/BulkDock/OUTPUTS/openbind_xx01zvns2b_c2_elabs_1LSYIIV.sdf', '/opt/xchem-fragalysis-2/maxwin/openbind-hippo/xx01zvns2b/cycle_02/gnina/openbind_xx01zvns2b_c2_elabs_scored_6.2plus_products.sdf']

>  <tags>  (158) 
syndirella_placed,openbind_xx01zvns2b_c2_elabs,openbind_xx01zvns2b_c2_elabs_scored_6.2plus,syndirella_product,openbind_xx01zvns2b_c2_elabs_scored,openbind_xx01zvns2b_c2_elabs_scored_top80percent,BulkDock Fragalysis export,openbind_xx01zvns2b_c2_elabs_scored_top80percent_despaghettified

>  <subsites>  (158) 
1 - Z4590/B/203/1

>  <smiles>  (158) 
CC(C)(C)OC(=O)[C@H](Cc1ccc([N+](=O)[O-])cc1)NC(=O)c1cc(Cl)cc(NC(=O)OCc2ccccc2)c1

>  <HIPPO Pose ID>  (158) 
140116

>  <energy_score>  (158) 
-23.803995

>  <inchikey>  (158) 
YSSQCCGMVLWBMM-DEOSSOPVSA-N

>  <gnina_score_min>  (158) 
6.457

>  <gnina_score>  (158) 
6.385

>  <ref_mols>  (158) 
Z3024a

>  <HIPPO Compound ID>  (158) 
198896

>  <distance_score>  (158) 
0.735672

>  <rmsd(smina/fragmenstein)>  (158) 
1.815

>  <ref_pdb>  (158) 
Z3024a

>  <inspiration_score>  (158) 
None

$$$$
P140119
     RDKit          3D

 39 42  0  0  0  0  0  0  0  0999 V2000
   -2.4724    4.5238   -6.0040 C   0  0  0  0  0  0  0  0  0  0  0  0
   -2.9596    5.8907   -6.4962 C   0  0  0  0  0  0  0  0  0  0  0  0
   -2.3452    6.1609   -7.8782 C   0  0  0  0  0  0  0  0  0  0  0  0
   -2.5486    7.0225   -5.5483 C   0  0  0  0  0  0  0  0  0  0  0  0
   -4.3900    5.8879   -6.7257 O   0  0  0  0  0  0  0  0  0  0  0  0
   -5.2818    5.6739   -5.7181 C   0  0  0  0  0  0  0  0  0  0  0  0
   -4.9499    5.4848   -4.5813 O   0  0  0  0  0  0  0  0  0  0  0  0
   -6.5614    5.7393   -6.2990 N   0  0  0  0  0  0  0  0  0  0  0  0
   -7.9146    5.7052   -5.6802 C   0  0  0  0  0  0  0  0  0  0  0  0
   -8.9902    5.4815   -6.7166 C   0  0  0  0  0  0  0  0  0  0  0  0
   -8.3522    4.3476   -7.4607 C   0  0  1  0  0  0  0  0  0  0  0  0
   -8.2681    4.4497   -8.9676 C   0  0  0  0  0  0  0  0  0  0  0  0
   -7.9208    5.6319   -9.6325 C   0  0  0  0  0  0  0  0  0  0  0  0
   -7.8198    5.6673  -11.0294 C   0  0  0  0  0  0  0  0  0  0  0  0
   -8.0445    4.5179  -11.7858 C   0  0  0  0  0  0  0  0  0  0  0  0
   -7.9369    4.5130  -13.1774 N   0  0  0  0  0  0  0  0  0  0  0  0
   -7.4960    5.5268  -14.0902 C   0  0  0  0  0  0  0  0  0  0  0  0
   -7.1801    6.6670  -13.9024 O   0  0  0  0  0  0  0  0  0  0  0  0
   -7.4632    5.0721  -15.4996 C   0  0  0  0  0  0  0  0  0  0  0  0
   -8.6304    4.6335  -16.1210 C   0  0  0  0  0  0  0  0  0  0  0  0
   -8.6154    4.3895  -17.4901 C   0  0  0  0  0  0  0  0  0  0  0  0
  -10.0712    3.9559  -18.2863 Cl  0  0  0  0  0  0  0  0  0  0  0  0
   -7.4451    4.5413  -18.2306 C   0  0  0  0  0  0  0  0  0  0  0  0
   -6.2664    4.9301  -17.5928 C   0  0  0  0  0  0  0  0  0  0  0  0
   -5.1039    5.0113  -18.3523 N   0  0  0  0  0  0  0  0  0  0  0  0
   -3.7687    5.2880  -17.9797 C   0  0  0  0  0  0  0  0  0  0  0  0
   -3.3002    5.6017  -16.9283 O   0  0  0  0  0  0  0  0  0  0  0  0
   -3.0353    5.1587  -19.1178 O   0  0  0  0  0  0  0  0  0  0  0  0
   -1.6370    5.4625  -19.0051 C   0  0  0  0  0  0  0  0  0  0  0  0
   -1.3854    6.8328  -19.5806 C   0  0  0  0  0  0  0  0  0  0  0  0
   -1.8298    7.9803  -18.9065 C   0  0  0  0  0  0  0  0  0  0  0  0
   -1.6147    9.2487  -19.4459 C   0  0  0  0  0  0  0  0  0  0  0  0
   -0.9481    9.3838  -20.6615 C   0  0  0  0  0  0  0  0  0  0  0  0
   -0.4950    8.2513  -21.3367 C   0  0  0  0  0  0  0  0  0  0  0  0
   -0.7131    6.9811  -20.8003 C   0  0  0  0  0  0  0  0  0  0  0  0
   -6.2792    5.2170  -16.2280 C   0  0  0  0  0  0  0  0  0  0  0  0
   -8.3736    3.3311  -11.1353 C   0  0  0  0  0  0  0  0  0  0  0  0
   -8.4816    3.2966   -9.7407 C   0  0  0  0  0  0  0  0  0  0  0  0
   -6.9893    4.3700   -6.7764 C   0  0  0  0  0  0  0  0  0  0  0  0
  1  2  1  0
  2  3  1  0
  2  4  1  0
  2  5  1  0
  5  6  1  0
  6  7  2  0
  6  8  1  0
  8  9  1  0
  9 10  1  0
 10 11  1  0
 11 12  1  6
 12 13  2  0
 13 14  1  0
 14 15  2  0
 15 16  1  0
 16 17  1  0
 17 18  2  0
 17 19  1  0
 19 20  2  0
 20 21  1  0
 21 22  1  0
 21 23  2  0
 23 24  1  0
 24 25  1  0
 25 26  1  0
 26 27  2  0
 26 28  1  0
 28 29  1  0
 29 30  1  0
 30 31  2  0
 31 32  1  0
 32 33  2  0
 33 34  1  0
 34 35  2  0
 24 36  2  0
 15 37  1  0
 37 38  2  0
 11 39  1  0
 39  8  1  0
 38 12  1  0
 36 19  1  0
 35 30  1  0
M  END
>  <name>  (159) 
P140119

>  <alias>  (159) 
None

>  <smina_score_min>  (159) 
-6.885

>  <exports>  (159) 
['/opt/xchem-fragalysis-2/maxwin/BulkDock/OUTPUTS/openbind_xx01zvns2b_c2_elabs_1LOUTNY.sdf', '/opt/xchem-fragalysis-2/maxwin/BulkDock/OUTPUTS/openbind_xx01zvns2b_c2_elabs_1LSYIIV.sdf', '/opt/xchem-fragalysis-2/maxwin/openbind-hippo/xx01zvns2b/cycle_02/gnina/openbind_xx01zvns2b_c2_elabs_scored_6.2plus_products.sdf']

>  <tags>  (159) 
syndirella_placed,openbind_xx01zvns2b_c2_elabs,openbind_xx01zvns2b_c2_elabs_scored_6.2plus,syndirella_product,openbind_xx01zvns2b_c2_elabs_scored,openbind_xx01zvns2b_c2_elabs_scored_top80percent,BulkDock Fragalysis export,openbind_xx01zvns2b_c2_elabs_scored_top80percent_despaghettified

>  <subsites>  (159) 
1 - Z4590/B/203/1

>  <smiles>  (159) 
CC(C)(C)OC(=O)N1CC[C@@H](c2ccc(NC(=O)c3cc(Cl)cc(NC(=O)OCc4ccccc4)c3)cc2)C1

>  <HIPPO Pose ID>  (159) 
140119

>  <energy_score>  (159) 
-20.349081

>  <inchikey>  (159) 
KLZRWYUTEDTAHC-JOCHJYFZSA-N

>  <gnina_score_min>  (159) 
6.228

>  <gnina_score>  (159) 
6.142

>  <ref_mols>  (159) 
Z3024a

>  <HIPPO Compound ID>  (159) 
198899

>  <distance_score>  (159) 
0.791058

>  <rmsd(smina/fragmenstein)>  (159) 
1.463

>  <ref_pdb>  (159) 
Z3024a

>  <inspiration_score>  (159) 
None

$$$$
P140131
     RDKit          3D

 40 44  0  0  0  0  0  0  0  0999 V2000
   -3.3187    5.5557  -16.9675 O   0  0  0  0  0  0  0  0  0  0  0  0
   -3.7958    5.2630  -18.0213 C   0  0  0  0  0  0  0  0  0  0  0  0
   -5.1342    4.9955  -18.3890 N   0  0  0  0  0  0  0  0  0  0  0  0
   -6.2911    4.9014  -17.6225 C   0  0  0  0  0  0  0  0  0  0  0  0
   -7.4753    4.5269  -18.2591 C   0  0  0  0  0  0  0  0  0  0  0  0
   -8.6432    4.3724  -17.5154 C   0  0  0  0  0  0  0  0  0  0  0  0
  -10.1069    3.9667  -18.3102 Cl  0  0  0  0  0  0  0  0  0  0  0  0
   -8.6503    4.5965  -16.1437 C   0  0  0  0  0  0  0  0  0  0  0  0
   -7.4769    5.0173  -15.5235 C   0  0  0  0  0  0  0  0  0  0  0  0
   -7.5107    5.4752  -14.1185 C   0  0  0  0  0  0  0  0  0  0  0  0
   -7.2941    6.6422  -13.9517 O   0  0  0  0  0  0  0  0  0  0  0  0
   -7.8608    4.4432  -13.1867 N   0  0  0  0  0  0  0  0  0  0  0  0
   -7.9658    4.4632  -11.7960 C   0  0  0  0  0  0  0  0  0  0  0  0
   -8.2784    3.2855  -11.1208 C   0  0  0  0  0  0  0  0  0  0  0  0
   -8.3823    3.2787   -9.7242 C   0  0  0  0  0  0  0  0  0  0  0  0
   -8.1871    4.4517   -8.9767 C   0  0  0  0  0  0  0  0  0  0  0  0
   -8.2921    4.3713   -7.4643 C   0  0  0  0  0  0  0  0  0  0  0  0
   -8.3290    5.7096   -6.7107 C   0  0  0  0  0  0  0  0  0  0  0  0
   -9.1382    6.5595   -6.9906 O   0  0  0  0  0  0  0  0  0  0  0  0
   -7.3059    5.6891   -5.6956 N   0  0  0  0  0  0  0  0  0  0  0  0
   -5.9547    6.2606   -6.2692 C   0  0  0  0  0  0  0  0  0  0  0  0
   -4.7207    5.5782   -5.6545 C   0  0  0  0  0  0  0  0  0  0  0  0
   -4.8491    5.4990   -4.1432 C   0  0  0  0  0  0  0  0  0  0  0  0
   -5.8749    6.5106   -3.7516 C   0  0  0  0  0  0  0  0  0  0  0  0
   -5.7252    7.3128   -2.6158 C   0  0  0  0  0  0  0  0  0  0  0  0
   -6.6928    8.2675   -2.3096 C   0  0  0  0  0  0  0  0  0  0  0  0
   -7.8148    8.4113   -3.1240 C   0  0  0  0  0  0  0  0  0  0  0  0
   -7.9759    7.6006   -4.2510 C   0  0  0  0  0  0  0  0  0  0  0  0
   -6.9962    6.6608   -4.6033 C   0  0  0  0  0  0  0  0  0  0  0  0
   -7.8695    5.6261   -9.6691 C   0  0  0  0  0  0  0  0  0  0  0  0
   -7.7608    5.6312  -11.0642 C   0  0  0  0  0  0  0  0  0  0  0  0
   -6.2949    5.1671  -16.2537 C   0  0  0  0  0  0  0  0  0  0  0  0
   -3.0715    5.1563  -19.1677 O   0  0  0  0  0  0  0  0  0  0  0  0
   -1.6715    5.4543  -19.0603 C   0  0  0  0  0  0  0  0  0  0  0  0
   -1.4211    6.8388  -19.6016 C   0  0  0  0  0  0  0  0  0  0  0  0
   -0.7653    7.0171  -20.8263 C   0  0  0  0  0  0  0  0  0  0  0  0
   -0.5492    8.3003  -21.3318 C   0  0  0  0  0  0  0  0  0  0  0  0
   -0.9877    9.4162  -20.6204 C   0  0  0  0  0  0  0  0  0  0  0  0
   -1.6378    9.2513  -19.3995 C   0  0  0  0  0  0  0  0  0  0  0  0
   -1.8508    7.9698  -18.8910 C   0  0  0  0  0  0  0  0  0  0  0  0
  1  2  2  0
  2  3  1  0
  3  4  1  0
  4  5  2  0
  5  6  1  0
  6  7  1  0
  6  8  2  0
  8  9  1  0
  9 10  1  0
 10 11  2  0
 10 12  1  0
 12 13  1  0
 13 14  2  0
 14 15  1  0
 15 16  2  0
 16 17  1  0
 17 18  1  0
 18 19  2  0
 18 20  1  0
 20 21  1  0
 21 22  1  0
 22 23  1  0
 23 24  1  0
 24 25  2  0
 25 26  1  0
 26 27  2  0
 27 28  1  0
 28 29  2  0
 16 30  1  0
 30 31  2  0
  9 32  2  0
  2 33  1  0
 33 34  1  0
 34 35  1  0
 35 36  2  0
 36 37  1  0
 37 38  2  0
 38 39  1  0
 39 40  2  0
 32  4  1  0
 40 35  1  0
 31 13  1  0
 29 20  1  0
 29 24  1  0
M  END
>  <name>  (160) 
P140131

>  <alias>  (160) 
None

>  <smina_score_min>  (160) 
-7.523

>  <exports>  (160) 
['/opt/xchem-fragalysis-2/maxwin/BulkDock/OUTPUTS/openbind_xx01zvns2b_c2_elabs_1LOUTNY.sdf', '/opt/xchem-fragalysis-2/maxwin/BulkDock/OUTPUTS/openbind_xx01zvns2b_c2_elabs_1LSYIIV.sdf', '/opt/xchem-fragalysis-2/maxwin/openbind-hippo/xx01zvns2b/cycle_02/gnina/openbind_xx01zvns2b_c2_elabs_scored_6.2plus_products.sdf']

>  <tags>  (160) 
syndirella_placed,openbind_xx01zvns2b_c2_elabs,openbind_xx01zvns2b_c2_elabs_scored_6.2plus,syndirella_product,openbind_xx01zvns2b_c2_elabs_scored,openbind_xx01zvns2b_c2_elabs_scored_top80percent,BulkDock Fragalysis export,openbind_xx01zvns2b_c2_elabs_scored_top80percent_despaghettified

>  <subsites>  (160) 
1 - Z4590/B/203/1

>  <smiles>  (160) 
O=C(Nc1cc(Cl)cc(C(=O)Nc2ccc(CC(=O)N3CCCc4ccccc43)cc2)c1)OCc1ccccc1

>  <HIPPO Pose ID>  (160) 
140131

>  <energy_score>  (160) 
-19.541031

>  <inchikey>  (160) 
PDKXWFYALIPFSY-UHFFFAOYSA-N

>  <gnina_score_min>  (160) 
6.219

>  <gnina_score>  (160) 
6.043

>  <ref_mols>  (160) 
Z3024a

>  <HIPPO Compound ID>  (160) 
198909

>  <distance_score>  (160) 
1.016395

>  <rmsd(smina/fragmenstein)>  (160) 
1.246

>  <ref_pdb>  (160) 
Z3024a

>  <inspiration_score>  (160) 
None

$$$$
P141529
     RDKit          3D

 35 37  0  0  0  0  0  0  0  0999 V2000
   -8.4032    6.8208  -11.6947 C   0  0  0  0  0  0  0  0  0  0  0  0
   -7.8624    5.6532  -11.3058 C   0  0  0  0  0  0  0  0  0  0  0  0
   -6.8437    4.8602  -12.0860 C   0  0  0  0  0  0  0  0  0  0  0  0
   -7.1345    4.8027  -13.4891 N   0  0  0  0  0  0  0  0  0  0  0  0
   -6.8387    5.8013  -14.6056 C   0  0  0  0  0  0  0  0  0  0  0  0
   -6.3794    6.8688  -14.5608 O   0  0  0  0  0  0  0  0  0  0  0  0
   -7.1115    5.2284  -15.9397 C   0  0  0  0  0  0  0  0  0  0  0  0
   -8.3534    4.7734  -16.3650 C   0  0  0  0  0  0  0  0  0  0  0  0
   -8.4999    4.4283  -17.7138 C   0  0  0  0  0  0  0  0  0  0  0  0
  -10.0604    3.9898  -18.2942 Cl  0  0  0  0  0  0  0  0  0  0  0  0
   -7.4219    4.5021  -18.6126 C   0  0  0  0  0  0  0  0  0  0  0  0
   -6.1767    4.9129  -18.1545 C   0  0  0  0  0  0  0  0  0  0  0  0
   -5.0318    5.0701  -18.9290 N   0  0  0  0  0  0  0  0  0  0  0  0
   -4.8504    5.0639  -20.4421 C   0  0  0  0  0  0  0  0  0  0  0  0
   -5.6125    4.8507  -21.2911 O   0  0  0  0  0  0  0  0  0  0  0  0
   -3.5669    5.4685  -20.6021 O   0  0  0  0  0  0  0  0  0  0  0  0
   -3.2941    6.2928  -21.7375 C   0  0  0  0  0  0  0  0  0  0  0  0
   -2.6928    7.5997  -21.2446 C   0  0  0  0  0  0  0  0  0  0  0  0
   -1.9973    7.6830  -20.0246 C   0  0  0  0  0  0  0  0  0  0  0  0
   -1.4226    8.8846  -19.6037 C   0  0  0  0  0  0  0  0  0  0  0  0
   -1.5202   10.0189  -20.4037 C   0  0  0  0  0  0  0  0  0  0  0  0
   -2.1951    9.9518  -21.6212 C   0  0  0  0  0  0  0  0  0  0  0  0
   -2.7771    8.7513  -22.0398 C   0  0  0  0  0  0  0  0  0  0  0  0
   -6.0286    5.2662  -16.8173 C   0  0  0  0  0  0  0  0  0  0  0  0
   -8.2130    5.0898   -9.9903 C   0  0  0  0  0  0  0  0  0  0  0  0
   -8.0304    5.8130   -8.8083 C   0  0  0  0  0  0  0  0  0  0  0  0
   -8.2875    5.2493   -7.5532 C   0  0  0  0  0  0  0  0  0  0  0  0
   -8.6979    3.9322   -7.4371 C   0  0  0  0  0  0  0  0  0  0  0  0
   -8.8433    3.5131   -6.1476 O   0  0  0  0  0  0  0  0  0  0  0  0
   -9.9536    2.6588   -5.8805 C   0  0  0  0  0  0  0  0  0  0  0  0
   -8.7985    3.2071   -8.6171 C   0  0  0  0  0  0  0  0  0  0  0  0
   -8.7963    1.7870   -8.5602 N   0  0  0  0  0  0  0  0  0  0  0  0
   -7.6814    1.2558   -8.4992 O   0  0  0  0  0  0  0  0  0  0  0  0
   -9.8979    1.2271   -8.5077 O   0  0  0  0  0  0  0  0  0  0  0  0
   -8.6125    3.7650   -9.8844 C   0  0  0  0  0  0  0  0  0  0  0  0
  1  2  2  0
  2  3  1  0
  3  4  1  0
  4  5  1  0
  5  6  2  0
  5  7  1  0
  7  8  2  0
  8  9  1  0
  9 10  1  0
  9 11  2  0
 11 12  1  0
 12 13  1  0
 13 14  1  0
 14 15  2  0
 14 16  1  0
 16 17  1  0
 17 18  1  0
 18 19  2  0
 19 20  1  0
 20 21  2  0
 21 22  1  0
 22 23  2  0
 12 24  2  0
  2 25  1  0
 25 26  2  0
 26 27  1  0
 27 28  2  0
 28 29  1  0
 29 30  1  0
 28 31  1  0
 31 32  1  0
 32 33  2  0
 32 34  1  0
 31 35  2  0
 24  7  1  0
 35 25  1  0
 23 18  1  0
M  CHG  2  32   1  34  -1
M  END
>  <name>  (161) 
P141529

>  <alias>  (161) 
None

>  <smina_score_min>  (161) 
-7.698

>  <exports>  (161) 
['/opt/xchem-fragalysis-2/maxwin/BulkDock/OUTPUTS/openbind_xx01zvns2b_c2_elabs_1LOUTNY.sdf', '/opt/xchem-fragalysis-2/maxwin/BulkDock/OUTPUTS/openbind_xx01zvns2b_c2_elabs_1LSYIIV.sdf', '/opt/xchem-fragalysis-2/maxwin/openbind-hippo/xx01zvns2b/cycle_02/gnina/openbind_xx01zvns2b_c2_elabs_scored_6.2plus_products.sdf']

>  <tags>  (161) 
syndirella_placed,openbind_xx01zvns2b_c2_elabs,openbind_xx01zvns2b_c2_elabs_scored_6.2plus,syndirella_product,openbind_xx01zvns2b_c2_elabs_scored,openbind_xx01zvns2b_c2_elabs_scored_top80percent,BulkDock Fragalysis export,openbind_xx01zvns2b_c2_elabs_scored_top80percent_despaghettified

>  <subsites>  (161) 
1 - Z4590/B/203/1

>  <smiles>  (161) 
C=C(CNC(=O)c1cc(Cl)cc(NC(=O)OCc2ccccc2)c1)c1ccc(OC)c([N+](=O)[O-])c1

>  <HIPPO Pose ID>  (161) 
141529

>  <energy_score>  (161) 
-23.166049

>  <inchikey>  (161) 
JYWVAUGOIHBQGN-UHFFFAOYSA-N

>  <gnina_score_min>  (161) 
6.281

>  <gnina_score>  (161) 
5.877

>  <ref_mols>  (161) 
Z3021a

>  <HIPPO Compound ID>  (161) 
199056

>  <distance_score>  (161) 
1.44975

>  <rmsd(smina/fragmenstein)>  (161) 
1.968

>  <ref_pdb>  (161) 
Z3021a

>  <inspiration_score>  (161) 
None

$$$$
P141530
     RDKit          3D

 35 38  0  0  0  0  0  0  0  0999 V2000
   -9.5648    2.2330   -8.4617 C   0  0  0  0  0  0  0  0  0  0  0  0
   -8.3108    2.8851   -8.9943 C   0  0  2  0  0  0  0  0  0  0  0  0
   -8.5335    4.0928   -9.8955 C   0  0  0  0  0  0  0  0  0  0  0  0
   -8.5611    5.3935   -9.3571 C   0  0  0  0  0  0  0  0  0  0  0  0
   -8.4349    6.5059  -10.1800 C   0  0  0  0  0  0  0  0  0  0  0  0
   -8.2827    6.3296  -11.5494 C   0  0  0  0  0  0  0  0  0  0  0  0
   -8.3358    5.0498  -12.1008 C   0  0  0  0  0  0  0  0  0  0  0  0
   -8.1387    4.8572  -13.4557 N   0  0  0  0  0  0  0  0  0  0  0  0
   -7.5937    5.8099  -14.5302 C   0  0  0  0  0  0  0  0  0  0  0  0
   -7.2953    6.9343  -14.4622 O   0  0  0  0  0  0  0  0  0  0  0  0
   -7.5302    5.1611  -15.8493 C   0  0  0  0  0  0  0  0  0  0  0  0
   -8.6862    4.6653  -16.4363 C   0  0  0  0  0  0  0  0  0  0  0  0
   -8.6576    4.3507  -17.7897 C   0  0  0  0  0  0  0  0  0  0  0  0
  -10.1365    3.9223  -18.5380 Cl  0  0  0  0  0  0  0  0  0  0  0  0
   -7.4850    4.4794  -18.5420 C   0  0  0  0  0  0  0  0  0  0  0  0
   -6.3228    4.9356  -17.9264 C   0  0  0  0  0  0  0  0  0  0  0  0
   -5.1237    5.1640  -18.5926 N   0  0  0  0  0  0  0  0  0  0  0  0
   -4.7995    5.1526  -20.0837 C   0  0  0  0  0  0  0  0  0  0  0  0
   -5.4615    4.8759  -20.9965 O   0  0  0  0  0  0  0  0  0  0  0  0
   -3.5384    5.6445  -20.1369 O   0  0  0  0  0  0  0  0  0  0  0  0
   -3.1376    6.2659  -21.3612 C   0  0  0  0  0  0  0  0  0  0  0  0
   -2.5560    7.6241  -21.0177 C   0  0  0  0  0  0  0  0  0  0  0  0
   -2.6902    8.6979  -21.9083 C   0  0  0  0  0  0  0  0  0  0  0  0
   -2.1279    9.9424  -21.6106 C   0  0  0  0  0  0  0  0  0  0  0  0
   -1.4238   10.1289  -20.4222 C   0  0  0  0  0  0  0  0  0  0  0  0
   -1.2769    9.0709  -19.5300 C   0  0  0  0  0  0  0  0  0  0  0  0
   -1.8324    7.8260  -19.8293 C   0  0  0  0  0  0  0  0  0  0  0  0
   -6.3463    5.2744  -16.5745 C   0  0  0  0  0  0  0  0  0  0  0  0
   -8.5154    3.9382  -11.2893 C   0  0  0  0  0  0  0  0  0  0  0  0
   -7.4296    1.9400   -9.6554 N   0  0  0  0  0  0  0  0  0  0  0  0
   -6.1483    2.0119   -9.1886 C   0  0  0  0  0  0  0  0  0  0  0  0
   -5.2565    1.2173   -9.4379 O   0  0  0  0  0  0  0  0  0  0  0  0
   -6.0782    3.0266   -8.3015 N   0  0  0  0  0  0  0  0  0  0  0  0
   -7.3451    3.2799   -7.8679 C   0  0  0  0  0  0  0  0  0  0  0  0
   -7.6246    3.8210   -6.8048 O   0  0  0  0  0  0  0  0  0  0  0  0
  2  1  1  1
  2  3  1  0
  3  4  2  0
  4  5  1  0
  5  6  2  0
  6  7  1  0
  7  8  1  0
  8  9  1  0
  9 10  2  0
  9 11  1  0
 11 12  2  0
 12 13  1  0
 13 14  1  0
 13 15  2  0
 15 16  1  0
 16 17  1  0
 17 18  1  0
 18 19  2  0
 18 20  1  0
 20 21  1  0
 21 22  1  0
 22 23  2  0
 23 24  1  0
 24 25  2  0
 25 26  1  0
 26 27  2  0
 16 28  2  0
  7 29  2  0
  2 30  1  0
 30 31  1  0
 31 32  2  0
 31 33  1  0
 33 34  1  0
 34 35  2  0
 34  2  1  0
 29  3  1  0
 28 11  1  0
 27 22  1  0
M  END
>  <name>  (162) 
P141530

>  <alias>  (162) 
None

>  <smina_score_min>  (162) 
-8.633

>  <exports>  (162) 
['/opt/xchem-fragalysis-2/maxwin/BulkDock/OUTPUTS/openbind_xx01zvns2b_c2_elabs_1LOUTNY.sdf', '/opt/xchem-fragalysis-2/maxwin/BulkDock/OUTPUTS/openbind_xx01zvns2b_c2_elabs_1LSYIIV.sdf', '/opt/xchem-fragalysis-2/maxwin/openbind-hippo/xx01zvns2b/cycle_02/gnina/openbind_xx01zvns2b_c2_elabs_scored_6.2plus_products.sdf']

>  <tags>  (162) 
syndirella_placed,openbind_xx01zvns2b_c2_elabs,openbind_xx01zvns2b_c2_elabs_scored_6.2plus,syndirella_product,openbind_xx01zvns2b_c2_elabs_scored,openbind_xx01zvns2b_c2_elabs_scored_top80percent,BulkDock Fragalysis export,openbind_xx01zvns2b_c2_elabs_scored_top80percent_despaghettified

>  <subsites>  (162) 
1 - Z4590/B/203/1

>  <smiles>  (162) 
C[C@]1(c2cccc(NC(=O)c3cc(Cl)cc(NC(=O)OCc4ccccc4)c3)c2)NC(=O)NC1=O

>  <HIPPO Pose ID>  (162) 
141530

>  <energy_score>  (162) 
-41.622044

>  <inchikey>  (162) 
LULGCLOJNVXVFK-RUZDIDTESA-N

>  <gnina_score_min>  (162) 
6.31

>  <gnina_score>  (162) 
6.133

>  <ref_mols>  (162) 
Z3021a

>  <HIPPO Compound ID>  (162) 
163037

>  <distance_score>  (162) 
0.784342

>  <rmsd(smina/fragmenstein)>  (162) 
2.005

>  <ref_pdb>  (162) 
Z3021a

>  <inspiration_score>  (162) 
None

$$$$
P141534
     RDKit          3D

 36 39  0  0  0  0  0  0  0  0999 V2000
   -5.4862    4.8800  -20.8730 O   0  0  0  0  0  0  0  0  0  0  0  0
   -4.8283    5.1776  -19.9638 C   0  0  0  0  0  0  0  0  0  0  0  0
   -5.1537    5.2058  -18.4733 N   0  0  0  0  0  0  0  0  0  0  0  0
   -6.3504    4.9720  -17.8045 C   0  0  0  0  0  0  0  0  0  0  0  0
   -7.5108    4.5104  -18.4172 C   0  0  0  0  0  0  0  0  0  0  0  0
   -8.6784    4.3690  -17.6587 C   0  0  0  0  0  0  0  0  0  0  0  0
  -10.1506    3.9226  -18.4184 Cl  0  0  0  0  0  0  0  0  0  0  0  0
   -8.7037    4.6804  -16.3001 C   0  0  0  0  0  0  0  0  0  0  0  0
   -7.5501    5.1836  -15.7125 C   0  0  0  0  0  0  0  0  0  0  0  0
   -7.5730    5.7950  -14.3666 C   0  0  0  0  0  0  0  0  0  0  0  0
   -7.1443    6.8744  -14.2548 O   0  0  0  0  0  0  0  0  0  0  0  0
   -8.1158    4.8216  -13.3047 N   0  0  0  0  0  0  0  0  0  0  0  0
   -8.3269    4.9973  -11.9436 C   0  0  0  0  0  0  0  0  0  0  0  0
   -8.1238    6.2318  -11.3278 C   0  0  0  0  0  0  0  0  0  0  0  0
   -8.2463    6.3545   -9.9434 C   0  0  0  0  0  0  0  0  0  0  0  0
   -8.5370    5.2338   -9.1698 C   0  0  0  0  0  0  0  0  0  0  0  0
   -8.7443    3.9888   -9.7794 C   0  0  0  0  0  0  0  0  0  0  0  0
   -8.8292    2.7146   -8.9627 C   0  0  2  0  0  0  0  0  0  0  0  0
   -9.6858    2.9241   -7.8344 O   0  0  0  0  0  0  0  0  0  0  0  0
   -7.4079    2.3105   -8.4755 C   0  0  0  0  0  0  0  0  0  0  0  0
   -6.3266    2.5487   -9.4488 N   0  0  0  0  0  0  0  0  0  0  0  0
   -5.0885    3.0799   -8.9096 C   0  0  0  0  0  0  0  0  0  0  0  0
   -4.3277    3.8186  -10.0180 C   0  0  0  0  0  0  0  0  0  0  0  0
   -4.4394    3.1350  -11.3824 C   0  0  0  0  0  0  0  0  0  0  0  0
   -4.8201    1.6678  -11.2343 C   0  0  0  0  0  0  0  0  0  0  0  0
   -6.1211    1.4920  -10.4335 C   0  0  0  0  0  0  0  0  0  0  0  0
   -8.6742    3.8901  -11.1786 C   0  0  0  0  0  0  0  0  0  0  0  0
   -6.3722    5.3056  -16.4508 C   0  0  0  0  0  0  0  0  0  0  0  0
   -3.5733    5.6841  -20.0250 O   0  0  0  0  0  0  0  0  0  0  0  0
   -3.1712    6.2670  -21.2678 C   0  0  0  0  0  0  0  0  0  0  0  0
   -2.5686    7.6251  -20.9640 C   0  0  0  0  0  0  0  0  0  0  0  0
   -2.6981    8.6791  -21.8789 C   0  0  0  0  0  0  0  0  0  0  0  0
   -2.1189    9.9236  -21.6155 C   0  0  0  0  0  0  0  0  0  0  0  0
   -1.4022   10.1296  -20.4379 C   0  0  0  0  0  0  0  0  0  0  0  0
   -1.2592    9.0911  -19.5225 C   0  0  0  0  0  0  0  0  0  0  0  0
   -1.8317    7.8461  -19.7875 C   0  0  0  0  0  0  0  0  0  0  0  0
  1  2  2  0
  2  3  1  0
  3  4  1  0
  4  5  2  0
  5  6  1  0
  6  7  1  0
  6  8  2  0
  8  9  1  0
  9 10  1  0
 10 11  2  0
 10 12  1  0
 12 13  1  0
 13 14  2  0
 14 15  1  0
 15 16  2  0
 16 17  1  0
 17 18  1  0
 18 19  1  1
 18 20  1  0
 20 21  1  0
 21 22  1  0
 22 23  1  0
 23 24  1  0
 24 25  1  0
 25 26  1  0
 17 27  2  0
  9 28  2  0
  2 29  1  0
 29 30  1  0
 30 31  1  0
 31 32  2  0
 32 33  1  0
 33 34  2  0
 34 35  1  0
 35 36  2  0
 28  4  1  0
 36 31  1  0
 27 13  1  0
 26 21  1  0
M  END
>  <name>  (163) 
P141534

>  <alias>  (163) 
None

>  <smina_score_min>  (163) 
-6.96

>  <exports>  (163) 
['/opt/xchem-fragalysis-2/maxwin/BulkDock/OUTPUTS/openbind_xx01zvns2b_c2_elabs_1LOUTNY.sdf', '/opt/xchem-fragalysis-2/maxwin/BulkDock/OUTPUTS/openbind_xx01zvns2b_c2_elabs_1LSYIIV.sdf', '/opt/xchem-fragalysis-2/maxwin/openbind-hippo/xx01zvns2b/cycle_02/gnina/openbind_xx01zvns2b_c2_elabs_scored_6.2plus_products.sdf']

>  <tags>  (163) 
syndirella_placed,openbind_xx01zvns2b_c2_elabs,openbind_xx01zvns2b_c2_elabs_scored_6.2plus,syndirella_product,openbind_xx01zvns2b_c2_elabs_scored,openbind_xx01zvns2b_c2_elabs_scored_top80percent,BulkDock Fragalysis export,openbind_xx01zvns2b_c2_elabs_scored_top80percent_despaghettified

>  <subsites>  (163) 
1 - Z4590/B/203/1

>  <smiles>  (163) 
O=C(Nc1cc(Cl)cc(C(=O)Nc2cccc([C@H](O)CN3CCCCC3)c2)c1)OCc1ccccc1

>  <HIPPO Pose ID>  (163) 
141534

>  <energy_score>  (163) 
-49.312357

>  <inchikey>  (163) 
HGKPUSATLCVHHH-AREMUKBSSA-N

>  <gnina_score_min>  (163) 
6.272

>  <gnina_score>  (163) 
6.12

>  <ref_mols>  (163) 
Z3021a

>  <HIPPO Compound ID>  (163) 
199059

>  <distance_score>  (163) 
0.686792

>  <rmsd(smina/fragmenstein)>  (163) 
1.211

>  <ref_pdb>  (163) 
Z3021a

>  <inspiration_score>  (163) 
None

$$$$
P141535
     RDKit          3D

 37 40  0  0  0  0  0  0  0  0999 V2000
   -6.0852   11.0284  -12.1134 C   0  0  0  0  0  0  0  0  0  0  0  0
   -6.9941    9.9668  -12.7531 C   0  0  0  0  0  0  0  0  0  0  0  0
   -6.3576    9.5039  -14.0632 C   0  0  0  0  0  0  0  0  0  0  0  0
   -8.3809   10.5851  -12.9576 C   0  0  0  0  0  0  0  0  0  0  0  0
   -7.0022    8.8706  -11.8109 O   0  0  0  0  0  0  0  0  0  0  0  0
   -7.8111    7.7776  -11.9585 C   0  0  0  0  0  0  0  0  0  0  0  0
   -8.6943    7.7101  -12.7710 O   0  0  0  0  0  0  0  0  0  0  0  0
   -7.4323    6.8798  -10.9335 N   0  0  0  0  0  0  0  0  0  0  0  0
   -8.1762    7.2258   -9.6108 C   0  0  0  0  0  0  0  0  0  0  0  0
   -7.7658    6.3653   -8.4479 C   0  0  0  0  0  0  0  0  0  0  0  0
   -8.0244    5.1687   -9.2370 C   0  0  0  0  0  0  0  0  0  0  0  0
   -8.4182    3.9290   -8.7635 C   0  0  0  0  0  0  0  0  0  0  0  0
   -8.7769    2.9733   -9.6947 C   0  0  0  0  0  0  0  0  0  0  0  0
   -8.6863    3.2588  -11.0618 C   0  0  0  0  0  0  0  0  0  0  0  0
   -8.2112    4.4965  -11.5391 C   0  0  0  0  0  0  0  0  0  0  0  0
   -8.0413    4.5374  -12.9335 N   0  0  0  0  0  0  0  0  0  0  0  0
   -7.0996    5.2535  -13.7485 C   0  0  0  0  0  0  0  0  0  0  0  0
   -6.2649    6.0633  -13.4548 O   0  0  0  0  0  0  0  0  0  0  0  0
   -7.2101    4.9646  -15.2235 C   0  0  0  0  0  0  0  0  0  0  0  0
   -8.4030    4.6183  -15.8669 C   0  0  0  0  0  0  0  0  0  0  0  0
   -8.4150    4.4507  -17.2570 C   0  0  0  0  0  0  0  0  0  0  0  0
   -9.8880    4.0467  -18.0539 Cl  0  0  0  0  0  0  0  0  0  0  0  0
   -7.2628    4.6461  -18.0202 C   0  0  0  0  0  0  0  0  0  0  0  0
   -6.0756    4.9981  -17.3877 C   0  0  0  0  0  0  0  0  0  0  0  0
   -4.8896    5.2472  -18.0750 N   0  0  0  0  0  0  0  0  0  0  0  0
   -4.5926    5.2167  -19.4576 C   0  0  0  0  0  0  0  0  0  0  0  0
   -5.2584    4.8939  -20.3926 O   0  0  0  0  0  0  0  0  0  0  0  0
   -3.3097    5.6540  -19.5560 O   0  0  0  0  0  0  0  0  0  0  0  0
   -2.8171    5.9131  -20.8757 C   0  0  0  0  0  0  0  0  0  0  0  0
   -2.2806    7.3253  -20.8873 C   0  0  0  0  0  0  0  0  0  0  0  0
   -2.7610    8.2677  -21.8064 C   0  0  0  0  0  0  0  0  0  0  0  0
   -2.2668    9.5740  -21.8040 C   0  0  0  0  0  0  0  0  0  0  0  0
   -1.2915    9.9521  -20.8826 C   0  0  0  0  0  0  0  0  0  0  0  0
   -0.8070    9.0248  -19.9629 C   0  0  0  0  0  0  0  0  0  0  0  0
   -1.2962    7.7180  -19.9669 C   0  0  0  0  0  0  0  0  0  0  0  0
   -6.0524    5.1487  -15.9975 C   0  0  0  0  0  0  0  0  0  0  0  0
   -7.9342    5.5076  -10.5967 C   0  0  0  0  0  0  0  0  0  0  0  0
  1  2  1  0
  2  3  1  0
  2  4  1  0
  2  5  1  0
  5  6  1  0
  6  7  2  0
  6  8  1  0
  8  9  1  0
  9 10  1  0
 10 11  1  0
 11 12  2  0
 12 13  1  0
 13 14  2  0
 14 15  1  0
 15 16  1  0
 16 17  1  0
 17 18  2  0
 17 19  1  0
 19 20  2  0
 20 21  1  0
 21 22  1  0
 21 23  2  0
 23 24  1  0
 24 25  1  0
 25 26  1  0
 26 27  2  0
 26 28  1  0
 28 29  1  0
 29 30  1  0
 30 31  2  0
 31 32  1  0
 32 33  2  0
 33 34  1  0
 34 35  2  0
 24 36  2  0
 15 37  2  0
 37  8  1  0
 37 11  1  0
 36 19  1  0
 35 30  1  0
M  END
>  <name>  (164) 
P141535

>  <alias>  (164) 
None

>  <smina_score_min>  (164) 
-7.775

>  <exports>  (164) 
['/opt/xchem-fragalysis-2/maxwin/BulkDock/OUTPUTS/openbind_xx01zvns2b_c2_elabs_1LOUTNY.sdf', '/opt/xchem-fragalysis-2/maxwin/BulkDock/OUTPUTS/openbind_xx01zvns2b_c2_elabs_1LSYIIV.sdf', '/opt/xchem-fragalysis-2/maxwin/openbind-hippo/xx01zvns2b/cycle_02/gnina/openbind_xx01zvns2b_c2_elabs_scored_6.2plus_products.sdf']

>  <tags>  (164) 
syndirella_placed,openbind_xx01zvns2b_c2_elabs,openbind_xx01zvns2b_c2_elabs_scored_6.2plus,syndirella_product,openbind_xx01zvns2b_c2_elabs_scored,openbind_xx01zvns2b_c2_elabs_scored_top80percent,BulkDock Fragalysis export,openbind_xx01zvns2b_c2_elabs_scored_top80percent_despaghettified

>  <subsites>  (164) 
1 - Z4590/B/203/1

>  <smiles>  (164) 
CC(C)(C)OC(=O)N1CCc2cccc(NC(=O)c3cc(Cl)cc(NC(=O)OCc4ccccc4)c3)c21

>  <HIPPO Pose ID>  (164) 
141535

>  <energy_score>  (164) 
-10.92984

>  <inchikey>  (164) 
ZPNNXFAAMHQQFE-UHFFFAOYSA-N

>  <gnina_score_min>  (164) 
6.552

>  <gnina_score>  (164) 
6.271

>  <ref_mols>  (164) 
Z3021a

>  <HIPPO Compound ID>  (164) 
199061

>  <distance_score>  (164) 
0.878419

>  <rmsd(smina/fragmenstein)>  (164) 
1.887

>  <ref_pdb>  (164) 
Z3021a

>  <inspiration_score>  (164) 
None

$$$$
P141539
     RDKit          3D

 38 42  0  0  0  0  0  0  0  0999 V2000
   -5.5928    2.4221  -10.3516 C   0  0  0  0  0  0  0  0  0  0  0  0
   -6.9847    2.0741  -10.1021 N   0  0  0  0  0  0  0  0  0  0  0  0
   -7.9077    2.6707  -11.0809 C   0  0  0  0  0  0  0  0  0  0  0  0
   -8.1744    4.1274  -10.7959 C   0  0  0  0  0  0  0  0  0  0  0  0
   -8.0817    5.1476  -11.7508 C   0  0  0  0  0  0  0  0  0  0  0  0
   -7.8844    4.8877  -13.1100 N   0  0  0  0  0  0  0  0  0  0  0  0
   -7.5236    5.8377  -14.2692 C   0  0  0  0  0  0  0  0  0  0  0  0
   -7.2583    6.9745  -14.2614 O   0  0  0  0  0  0  0  0  0  0  0  0
   -7.4920    5.1556  -15.5807 C   0  0  0  0  0  0  0  0  0  0  0  0
   -8.6547    4.6646  -16.1657 C   0  0  0  0  0  0  0  0  0  0  0  0
   -8.6401    4.3615  -17.5292 C   0  0  0  0  0  0  0  0  0  0  0  0
  -10.1149    3.9326  -18.3018 Cl  0  0  0  0  0  0  0  0  0  0  0  0
   -7.4760    4.5050  -18.2936 C   0  0  0  0  0  0  0  0  0  0  0  0
   -6.3088    4.9552  -17.6844 C   0  0  0  0  0  0  0  0  0  0  0  0
   -5.1209    5.1988  -18.3659 N   0  0  0  0  0  0  0  0  0  0  0  0
   -4.8131    5.1815  -19.8606 C   0  0  0  0  0  0  0  0  0  0  0  0
   -5.4804    4.8867  -20.7637 O   0  0  0  0  0  0  0  0  0  0  0  0
   -3.5609    5.6942  -19.9360 O   0  0  0  0  0  0  0  0  0  0  0  0
   -3.1699    6.2594  -21.1910 C   0  0  0  0  0  0  0  0  0  0  0  0
   -2.5655    7.6224  -20.9149 C   0  0  0  0  0  0  0  0  0  0  0  0
   -2.7044    8.6617  -21.8451 C   0  0  0  0  0  0  0  0  0  0  0  0
   -2.1234    9.9104  -21.6071 C   0  0  0  0  0  0  0  0  0  0  0  0
   -1.3954   10.1351  -20.4399 C   0  0  0  0  0  0  0  0  0  0  0  0
   -1.2429    9.1111  -19.5098 C   0  0  0  0  0  0  0  0  0  0  0  0
   -1.8173    7.8620  -19.7494 C   0  0  0  0  0  0  0  0  0  0  0  0
   -6.3183    5.2765  -16.3269 C   0  0  0  0  0  0  0  0  0  0  0  0
   -8.1960    6.4751  -11.3301 C   0  0  0  0  0  0  0  0  0  0  0  0
   -8.4521    6.7872   -9.9962 C   0  0  0  0  0  0  0  0  0  0  0  0
   -8.6082    5.7742   -9.0587 C   0  0  0  0  0  0  0  0  0  0  0  0
   -8.4758    4.4392   -9.4409 C   0  0  0  0  0  0  0  0  0  0  0  0
   -8.6144    3.2491   -8.4858 C   0  0  2  0  0  0  0  0  0  0  0  0
   -8.8186    3.5783   -7.0075 C   0  0  0  0  0  0  0  0  0  0  0  0
   -7.8537    4.2666   -6.2523 C   0  0  0  0  0  0  0  0  0  0  0  0
   -8.0790    4.5739   -4.9085 C   0  0  0  0  0  0  0  0  0  0  0  0
   -9.2656    4.1836   -4.2935 C   0  0  0  0  0  0  0  0  0  0  0  0
  -10.2207    3.4778   -5.0196 C   0  0  0  0  0  0  0  0  0  0  0  0
   -9.9964    3.1737   -6.3625 C   0  0  0  0  0  0  0  0  0  0  0  0
   -7.3837    2.3289   -8.6978 C   0  0  0  0  0  0  0  0  0  0  0  0
  1  2  1  0
  2  3  1  0
  3  4  1  0
  4  5  2  0
  5  6  1  0
  6  7  1  0
  7  8  2  0
  7  9  1  0
  9 10  2  0
 10 11  1  0
 11 12  1  0
 11 13  2  0
 13 14  1  0
 14 15  1  0
 15 16  1  0
 16 17  2  0
 16 18  1  0
 18 19  1  0
 19 20  1  0
 20 21  2  0
 21 22  1  0
 22 23  2  0
 23 24  1  0
 24 25  2  0
 14 26  2  0
  5 27  1  0
 27 28  2  0
 28 29  1  0
 29 30  2  0
 30 31  1  0
 31 32  1  1
 32 33  2  0
 33 34  1  0
 34 35  2  0
 35 36  1  0
 36 37  2  0
 31 38  1  0
 38  2  1  0
 30  4  1  0
 37 32  1  0
 26  9  1  0
 25 20  1  0
M  END
>  <name>  (165) 
P141539

>  <alias>  (165) 
None

>  <smina_score_min>  (165) 
-8.725

>  <exports>  (165) 
['/opt/xchem-fragalysis-2/maxwin/BulkDock/OUTPUTS/openbind_xx01zvns2b_c2_elabs_1LOUTNY.sdf', '/opt/xchem-fragalysis-2/maxwin/BulkDock/OUTPUTS/openbind_xx01zvns2b_c2_elabs_1LSYIIV.sdf', '/opt/xchem-fragalysis-2/maxwin/openbind-hippo/xx01zvns2b/cycle_02/gnina/openbind_xx01zvns2b_c2_elabs_scored_6.2plus_products.sdf']

>  <tags>  (165) 
syndirella_placed,openbind_xx01zvns2b_c2_elabs,openbind_xx01zvns2b_c2_elabs_scored_6.2plus,syndirella_product,openbind_xx01zvns2b_c2_elabs_scored,openbind_xx01zvns2b_c2_elabs_scored_top80percent,BulkDock Fragalysis export,openbind_xx01zvns2b_c2_elabs_scored_top80percent_despaghettified

>  <subsites>  (165) 
1 - Z4590/B/203/1

>  <smiles>  (165) 
CN1Cc2c(NC(=O)c3cc(Cl)cc(NC(=O)OCc4ccccc4)c3)cccc2[C@H](c2ccccc2)C1

>  <HIPPO Pose ID>  (165) 
141539

>  <energy_score>  (165) 
-42.836884

>  <inchikey>  (165) 
UACWCOZOXWUMDF-MHZLTWQESA-N

>  <gnina_score_min>  (165) 
6.533

>  <gnina_score>  (165) 
6.231

>  <ref_mols>  (165) 
Z3021a

>  <HIPPO Compound ID>  (165) 
199068

>  <distance_score>  (165) 
0.813127

>  <rmsd(smina/fragmenstein)>  (165) 
1.916

>  <ref_pdb>  (165) 
Z3021a

>  <inspiration_score>  (165) 
None

$$$$
P141540
     RDKit          3D

 38 41  0  0  0  0  0  0  0  0999 V2000
   -2.1214    4.3986   -4.3122 C   0  0  0  0  0  0  0  0  0  0  0  0
   -1.9627    4.6995   -5.8055 C   0  0  0  0  0  0  0  0  0  0  0  0
   -0.7056    3.9801   -6.3187 C   0  0  0  0  0  0  0  0  0  0  0  0
   -1.8013    6.2037   -6.0610 C   0  0  0  0  0  0  0  0  0  0  0  0
   -3.0483    4.1522   -6.6010 O   0  0  0  0  0  0  0  0  0  0  0  0
   -4.3181    4.6349   -6.4842 C   0  0  0  0  0  0  0  0  0  0  0  0
   -4.6807    5.3271   -5.6238 O   0  0  0  0  0  0  0  0  0  0  0  0
   -5.0432    4.1507   -7.7396 N   0  0  0  0  0  0  0  0  0  0  0  0
   -6.3001    4.4779   -8.2420 C   0  0  0  0  0  0  0  0  0  0  0  0
   -7.2153    5.2257   -7.5186 C   0  0  0  0  0  0  0  0  0  0  0  0
   -8.3582    5.7151   -8.1304 C   0  0  0  0  0  0  0  0  0  0  0  0
   -8.5344    5.5295   -9.4934 C   0  0  0  0  0  0  0  0  0  0  0  0
   -7.6129    4.8118  -10.2688 C   0  0  0  0  0  0  0  0  0  0  0  0
   -7.5003    4.9924  -11.8202 C   0  0  0  0  0  0  0  0  0  0  0  0
   -8.2573    6.1416  -12.4700 C   0  0  0  0  0  0  0  0  0  0  0  0
   -8.0335    5.5166  -13.8007 N   0  0  0  0  0  0  0  0  0  0  0  0
   -6.8009    5.4478  -14.6564 C   0  0  0  0  0  0  0  0  0  0  0  0
   -5.6996    5.8063  -14.4372 O   0  0  0  0  0  0  0  0  0  0  0  0
   -7.0876    4.9244  -16.0232 C   0  0  0  0  0  0  0  0  0  0  0  0
   -8.3579    4.5991  -16.4911 C   0  0  0  0  0  0  0  0  0  0  0  0
   -8.5304    4.3521  -17.8559 C   0  0  0  0  0  0  0  0  0  0  0  0
  -10.1202    4.0408  -18.4338 Cl  0  0  0  0  0  0  0  0  0  0  0  0
   -7.4558    4.4213  -18.7547 C   0  0  0  0  0  0  0  0  0  0  0  0
   -6.1889    4.7257  -18.2790 C   0  0  0  0  0  0  0  0  0  0  0  0
   -5.0458    4.9175  -19.0506 N   0  0  0  0  0  0  0  0  0  0  0  0
   -4.8767    5.0278  -20.5611 C   0  0  0  0  0  0  0  0  0  0  0  0
   -5.6504    4.9008  -21.4168 O   0  0  0  0  0  0  0  0  0  0  0  0
   -3.5844    5.4145  -20.7048 O   0  0  0  0  0  0  0  0  0  0  0  0
   -3.2961    6.2790  -21.8067 C   0  0  0  0  0  0  0  0  0  0  0  0
   -2.7050    7.5744  -21.2713 C   0  0  0  0  0  0  0  0  0  0  0  0
   -2.0547    7.6382  -20.0259 C   0  0  0  0  0  0  0  0  0  0  0  0
   -1.4835    8.8299  -19.5722 C   0  0  0  0  0  0  0  0  0  0  0  0
   -1.5407    9.9737  -20.3630 C   0  0  0  0  0  0  0  0  0  0  0  0
   -2.1725    9.9265  -21.6042 C   0  0  0  0  0  0  0  0  0  0  0  0
   -2.7501    8.7359  -22.0559 C   0  0  0  0  0  0  0  0  0  0  0  0
   -6.0115    4.9445  -16.9156 C   0  0  0  0  0  0  0  0  0  0  0  0
   -8.1935    4.2103  -12.8997 C   0  0  0  0  0  0  0  0  0  0  0  0
   -6.5680    4.1755   -9.5756 C   0  0  0  0  0  0  0  0  0  0  0  0
  1  2  1  0
  2  3  1  0
  2  4  1  0
  2  5  1  0
  5  6  1  0
  6  7  2  0
  6  8  1  0
  8  9  1  0
  9 10  2  0
 10 11  1  0
 11 12  2  0
 12 13  1  0
 13 14  1  0
 14 15  1  0
 15 16  1  0
 16 17  1  0
 17 18  2  0
 17 19  1  0
 19 20  2  0
 20 21  1  0
 21 22  1  0
 21 23  2  0
 23 24  1  0
 24 25  1  0
 25 26  1  0
 26 27  2  0
 26 28  1  0
 28 29  1  0
 29 30  1  0
 30 31  2  0
 31 32  1  0
 32 33  2  0
 33 34  1  0
 34 35  2  0
 24 36  2  0
 16 37  1  0
 13 38  2  0
 38  9  1  0
 37 14  1  0
 36 19  1  0
 35 30  1  0
M  END
>  <name>  (166) 
P141540

>  <alias>  (166) 
None

>  <smina_score_min>  (166) 
-7.123

>  <exports>  (166) 
['/opt/xchem-fragalysis-2/maxwin/BulkDock/OUTPUTS/openbind_xx01zvns2b_c2_elabs_1LOUTNY.sdf', '/opt/xchem-fragalysis-2/maxwin/BulkDock/OUTPUTS/openbind_xx01zvns2b_c2_elabs_1LSYIIV.sdf', '/opt/xchem-fragalysis-2/maxwin/openbind-hippo/xx01zvns2b/cycle_02/gnina/openbind_xx01zvns2b_c2_elabs_scored_6.2plus_products.sdf']

>  <tags>  (166) 
syndirella_placed,openbind_xx01zvns2b_c2_elabs,openbind_xx01zvns2b_c2_elabs_scored_6.2plus,syndirella_product,openbind_xx01zvns2b_c2_elabs_scored,openbind_xx01zvns2b_c2_elabs_scored_top80percent,BulkDock Fragalysis export,openbind_xx01zvns2b_c2_elabs_scored_top80percent_despaghettified

>  <subsites>  (166) 
1 - Z4590/B/203/1

>  <smiles>  (166) 
CC(C)(C)OC(=O)Nc1cccc(C2CN(C(=O)c3cc(Cl)cc(NC(=O)OCc4ccccc4)c3)C2)c1

>  <HIPPO Pose ID>  (166) 
141540

>  <energy_score>  (166) 
-16.252582

>  <inchikey>  (166) 
UXORBTMTEPEORN-UHFFFAOYSA-N

>  <gnina_score_min>  (166) 
6.243

>  <gnina_score>  (166) 
5.988

>  <ref_mols>  (166) 
Z3021a

>  <HIPPO Compound ID>  (166) 
199069

>  <distance_score>  (166) 
1.598893

>  <rmsd(smina/fragmenstein)>  (166) 
2.424

>  <ref_pdb>  (166) 
Z3021a

>  <inspiration_score>  (166) 
None

$$$$
P141542
     RDKit          3D

 39 42  0  0  0  0  0  0  0  0999 V2000
   -3.5634    5.9910   -7.6675 C   0  0  0  0  0  0  0  0  0  0  0  0
   -4.2305    5.2210   -6.5449 C   0  0  0  0  0  0  0  0  0  0  0  0
   -5.5953    5.0009   -6.9104 O   0  0  0  0  0  0  0  0  0  0  0  0
   -6.3503    4.3505   -5.9741 C   0  0  0  0  0  0  0  0  0  0  0  0
   -5.9000    3.9311   -4.9088 O   0  0  0  0  0  0  0  0  0  0  0  0
   -7.8110    4.1838   -6.4414 C   0  0  0  0  0  0  0  0  0  0  0  0
   -8.1389    5.0458   -7.5677 N   0  0  0  0  0  0  0  0  0  0  0  0
   -8.1934    6.4458   -7.4177 C   0  0  0  0  0  0  0  0  0  0  0  0
   -8.1935    7.0351   -6.3434 O   0  0  0  0  0  0  0  0  0  0  0  0
   -8.2023    7.0626   -8.8427 C   0  0  0  0  0  0  0  0  0  0  0  0
   -9.2994    7.8361   -9.0661 F   0  0  0  0  0  0  0  0  0  0  0  0
   -7.1177    7.8652   -9.0500 F   0  0  0  0  0  0  0  0  0  0  0  0
   -8.1862    5.8372   -9.7068 C   0  0  0  0  0  0  0  0  0  0  0  0
   -8.1550    5.7739  -11.0905 C   0  0  0  0  0  0  0  0  0  0  0  0
   -8.1678    4.5197  -11.7025 C   0  0  0  0  0  0  0  0  0  0  0  0
   -8.0335    4.4299  -13.0865 N   0  0  0  0  0  0  0  0  0  0  0  0
   -7.7188    5.5180  -14.1365 C   0  0  0  0  0  0  0  0  0  0  0  0
   -7.4469    6.6457  -14.0001 O   0  0  0  0  0  0  0  0  0  0  0  0
   -7.6683    4.9922  -15.5165 C   0  0  0  0  0  0  0  0  0  0  0  0
   -8.8019    4.5046  -16.1508 C   0  0  0  0  0  0  0  0  0  0  0  0
   -8.7634    4.3153  -17.5332 C   0  0  0  0  0  0  0  0  0  0  0  0
  -10.2182    3.9124  -18.3497 Cl  0  0  0  0  0  0  0  0  0  0  0  0
   -7.5999    4.5565  -18.2721 C   0  0  0  0  0  0  0  0  0  0  0  0
   -6.4616    5.0163  -17.6199 C   0  0  0  0  0  0  0  0  0  0  0  0
   -5.2937    5.3897  -18.2763 N   0  0  0  0  0  0  0  0  0  0  0  0
   -4.8951    5.2590  -19.7441 C   0  0  0  0  0  0  0  0  0  0  0  0
   -5.5048    4.8886  -20.6601 O   0  0  0  0  0  0  0  0  0  0  0  0
   -3.6426    5.7742  -19.7837 O   0  0  0  0  0  0  0  0  0  0  0  0
   -3.1774    6.2363  -21.0559 C   0  0  0  0  0  0  0  0  0  0  0  0
   -2.5571    7.6023  -20.8410 C   0  0  0  0  0  0  0  0  0  0  0  0
   -1.7902    7.8721  -19.6947 C   0  0  0  0  0  0  0  0  0  0  0  0
   -1.2045    9.1239  -19.5024 C   0  0  0  0  0  0  0  0  0  0  0  0
   -1.3654   10.1200  -20.4611 C   0  0  0  0  0  0  0  0  0  0  0  0
   -2.1128    9.8647  -21.6097 C   0  0  0  0  0  0  0  0  0  0  0  0
   -2.7050    8.6132  -21.8006 C   0  0  0  0  0  0  0  0  0  0  0  0
   -6.4977    5.2331  -16.2424 C   0  0  0  0  0  0  0  0  0  0  0  0
   -8.2419    3.3585  -10.9168 C   0  0  0  0  0  0  0  0  0  0  0  0
   -8.2239    3.4346   -9.5107 C   0  0  0  0  0  0  0  0  0  0  0  0
   -8.1819    4.6853   -8.9220 C   0  0  0  0  0  0  0  0  0  0  0  0
  1  2  1  0
  2  3  1  0
  3  4  1  0
  4  5  2  0
  4  6  1  0
  6  7  1  0
  7  8  1  0
  8  9  2  0
  8 10  1  0
 10 11  1  0
 10 12  1  0
 10 13  1  0
 13 14  2  0
 14 15  1  0
 15 16  1  0
 16 17  1  0
 17 18  2  0
 17 19  1  0
 19 20  2  0
 20 21  1  0
 21 22  1  0
 21 23  2  0
 23 24  1  0
 24 25  1  0
 25 26  1  0
 26 27  2  0
 26 28  1  0
 28 29  1  0
 29 30  1  0
 30 31  2  0
 31 32  1  0
 32 33  2  0
 33 34  1  0
 34 35  2  0
 24 36  2  0
 15 37  2  0
 37 38  1  0
 38 39  2  0
 39  7  1  0
 39 13  1  0
 36 19  1  0
 35 30  1  0
M  END
>  <name>  (167) 
P141542

>  <alias>  (167) 
None

>  <smina_score_min>  (167) 
-7.286

>  <exports>  (167) 
['/opt/xchem-fragalysis-2/maxwin/BulkDock/OUTPUTS/openbind_xx01zvns2b_c2_elabs_1LOUTNY.sdf', '/opt/xchem-fragalysis-2/maxwin/BulkDock/OUTPUTS/openbind_xx01zvns2b_c2_elabs_1LSYIIV.sdf', '/opt/xchem-fragalysis-2/maxwin/openbind-hippo/xx01zvns2b/cycle_02/gnina/openbind_xx01zvns2b_c2_elabs_scored_6.2plus_products.sdf']

>  <tags>  (167) 
syndirella_placed,openbind_xx01zvns2b_c2_elabs,openbind_xx01zvns2b_c2_elabs_scored_6.2plus,syndirella_product,openbind_xx01zvns2b_c2_elabs_scored,openbind_xx01zvns2b_c2_elabs_scored_top80percent,BulkDock Fragalysis export,openbind_xx01zvns2b_c2_elabs_scored_top80percent_despaghettified

>  <subsites>  (167) 
1 - Z4590/B/203/1

>  <smiles>  (167) 
CCOC(=O)CN1C(=O)C(F)(F)c2cc(NC(=O)c3cc(Cl)cc(NC(=O)OCc4ccccc4)c3)ccc21

>  <HIPPO Pose ID>  (167) 
141542

>  <energy_score>  (167) 
-35.041465

>  <inchikey>  (167) 
HXOGMASZCQGJBV-UHFFFAOYSA-N

>  <gnina_score_min>  (167) 
6.278

>  <gnina_score>  (167) 
6.075

>  <ref_mols>  (167) 
Z3021a

>  <HIPPO Compound ID>  (167) 
199072

>  <distance_score>  (167) 
0.609526

>  <rmsd(smina/fragmenstein)>  (167) 
1.67

>  <ref_pdb>  (167) 
Z3021a

>  <inspiration_score>  (167) 
None

$$$$
P141543
     RDKit          3D

 40 43  0  0  0  0  0  0  0  0999 V2000
   -1.5862    4.7393   -3.1554 C   0  0  0  0  0  0  0  0  0  0  0  0
   -1.0455    5.3355   -4.4600 C   0  0  0  0  0  0  0  0  0  0  0  0
    0.2598    4.6113   -4.8245 C   0  0  0  0  0  0  0  0  0  0  0  0
   -0.7526    6.8344   -4.3305 C   0  0  0  0  0  0  0  0  0  0  0  0
   -1.9385    5.0616   -5.5720 O   0  0  0  0  0  0  0  0  0  0  0  0
   -3.2066    5.5591   -5.5962 C   0  0  0  0  0  0  0  0  0  0  0  0
   -3.6629    6.2477   -4.7365 O   0  0  0  0  0  0  0  0  0  0  0  0
   -3.7710    5.0920   -6.8054 N   0  0  0  0  0  0  0  0  0  0  0  0
   -5.0603    5.2148   -7.3224 C   0  0  0  0  0  0  0  0  0  0  0  0
   -6.0688    5.9125   -6.6636 C   0  0  0  0  0  0  0  0  0  0  0  0
   -7.3506    5.9612   -7.2108 C   0  0  0  0  0  0  0  0  0  0  0  0
   -7.6284    5.3078   -8.4128 C   0  0  0  0  0  0  0  0  0  0  0  0
   -6.6222    4.6162   -9.1093 C   0  0  0  0  0  0  0  0  0  0  0  0
   -6.9746    3.8485  -10.3754 C   0  0  2  0  0  0  0  0  0  0  0  0
   -5.8268    3.2110  -11.1435 C   0  0  0  0  0  0  0  0  0  0  0  0
   -6.4455    2.5032  -12.3314 C   0  0  0  0  0  0  0  0  0  0  0  0
   -7.7861    3.1593  -12.6967 C   0  0  0  0  0  0  0  0  0  0  0  0
   -7.6578    4.6497  -12.9067 N   0  0  0  0  0  0  0  0  0  0  0  0
   -8.5280    5.0731  -13.9500 C   0  0  0  0  0  0  0  0  0  0  0  0
   -9.6659    5.4632  -13.9102 O   0  0  0  0  0  0  0  0  0  0  0  0
   -7.9477    4.9177  -15.3150 C   0  0  0  0  0  0  0  0  0  0  0  0
   -8.8198    4.5365  -16.3381 C   0  0  0  0  0  0  0  0  0  0  0  0
   -8.3588    4.4386  -17.6412 C   0  0  0  0  0  0  0  0  0  0  0  0
   -9.4626    4.0009  -18.8769 Cl  0  0  0  0  0  0  0  0  0  0  0  0
   -7.0301    4.7200  -17.9436 C   0  0  0  0  0  0  0  0  0  0  0  0
   -6.1472    5.0872  -16.9236 C   0  0  0  0  0  0  0  0  0  0  0  0
   -4.8117    5.3929  -17.1870 N   0  0  0  0  0  0  0  0  0  0  0  0
   -4.0860    5.4207  -18.4038 C   0  0  0  0  0  0  0  0  0  0  0  0
   -4.4449    5.2661  -19.5314 O   0  0  0  0  0  0  0  0  0  0  0  0
   -2.7989    5.7218  -18.0678 O   0  0  0  0  0  0  0  0  0  0  0  0
   -1.9006    5.8724  -19.1742 C   0  0  0  0  0  0  0  0  0  0  0  0
   -1.8354    7.3177  -19.6000 C   0  0  0  0  0  0  0  0  0  0  0  0
   -2.4993    7.7557  -20.7543 C   0  0  0  0  0  0  0  0  0  0  0  0
   -2.4353    9.0953  -21.1425 C   0  0  0  0  0  0  0  0  0  0  0  0
   -1.7166   10.0106  -20.3759 C   0  0  0  0  0  0  0  0  0  0  0  0
   -1.0678    9.5895  -19.2169 C   0  0  0  0  0  0  0  0  0  0  0  0
   -1.1293    8.2506  -18.8284 C   0  0  0  0  0  0  0  0  0  0  0  0
   -6.6037    5.1773  -15.6015 C   0  0  0  0  0  0  0  0  0  0  0  0
   -7.8421    4.6593  -11.3921 C   0  0  0  0  0  0  0  0  0  0  0  0
   -5.3373    4.5824   -8.5422 C   0  0  0  0  0  0  0  0  0  0  0  0
  1  2  1  0
  2  3  1  0
  2  4  1  0
  2  5  1  0
  5  6  1  0
  6  7  2  0
  6  8  1  0
  8  9  1  0
  9 10  2  0
 10 11  1  0
 11 12  2  0
 12 13  1  0
 14 13  1  1
 14 15  1  0
 15 16  1  0
 16 17  1  0
 17 18  1  0
 18 19  1  0
 19 20  2  0
 19 21  1  0
 21 22  2  0
 22 23  1  0
 23 24  1  0
 23 25  2  0
 25 26  1  0
 26 27  1  0
 27 28  1  0
 28 29  2  0
 28 30  1  0
 30 31  1  0
 31 32  1  0
 32 33  2  0
 33 34  1  0
 34 35  2  0
 35 36  1  0
 36 37  2  0
 26 38  2  0
 18 39  1  0
 13 40  2  0
 40  9  1  0
 39 14  1  0
 38 21  1  0
 37 32  1  0
M  END
>  <name>  (168) 
P141543

>  <alias>  (168) 
None

>  <smina_score_min>  (168) 
-6.893

>  <exports>  (168) 
['/opt/xchem-fragalysis-2/maxwin/BulkDock/OUTPUTS/openbind_xx01zvns2b_c2_elabs_1LOUTNY.sdf', '/opt/xchem-fragalysis-2/maxwin/BulkDock/OUTPUTS/openbind_xx01zvns2b_c2_elabs_1LSYIIV.sdf', '/opt/xchem-fragalysis-2/maxwin/openbind-hippo/xx01zvns2b/cycle_02/gnina/openbind_xx01zvns2b_c2_elabs_scored_6.2plus_products.sdf']

>  <tags>  (168) 
syndirella_placed,openbind_xx01zvns2b_c2_elabs,openbind_xx01zvns2b_c2_elabs_scored_6.2plus,syndirella_product,openbind_xx01zvns2b_c2_elabs_scored,openbind_xx01zvns2b_c2_elabs_scored_top80percent,BulkDock Fragalysis export,openbind_xx01zvns2b_c2_elabs_scored_top80percent_despaghettified

>  <subsites>  (168) 
1 - Z4590/B/203/1

>  <smiles>  (168) 
CC(C)(C)OC(=O)Nc1cccc([C@@H]2CCCN(C(=O)c3cc(Cl)cc(NC(=O)OCc4ccccc4)c3)C2)c1

>  <HIPPO Pose ID>  (168) 
141543

>  <energy_score>  (168) 
-31.080406

>  <inchikey>  (168) 
YGJMOLUWXACAGU-HSZRJFAPSA-N

>  <gnina_score_min>  (168) 
6.414

>  <gnina_score>  (168) 
6.119

>  <ref_mols>  (168) 
Z3021a

>  <HIPPO Compound ID>  (168) 
199073

>  <distance_score>  (168) 
1.716064

>  <rmsd(smina/fragmenstein)>  (168) 
2.363

>  <ref_pdb>  (168) 
Z3021a

>  <inspiration_score>  (168) 
None

$$$$
P142160
     RDKit          3D

 31 35  0  0  0  0  0  0  0  0999 V2000
   -0.2657    9.2047  -16.2895 C   0  0  0  0  0  0  0  0  0  0  0  0
   -0.2880    7.9731  -17.1882 C   0  0  0  0  0  0  0  0  0  0  0  0
   -1.6027    7.3222  -17.2319 N   0  0  0  0  0  0  0  0  0  0  0  0
   -1.4776    5.9662  -17.8075 C   0  0  0  0  0  0  0  0  0  0  0  0
   -2.7989    5.3760  -18.3188 C   0  0  0  0  0  0  0  0  0  0  0  0
   -3.9798    5.9728  -17.5621 C   0  0  0  0  0  0  0  0  0  0  0  0
   -5.3066    5.3613  -17.9098 C   0  0  0  0  0  0  0  0  0  0  0  0
   -5.8250    5.0673  -19.1535 C   0  0  0  0  0  0  0  0  0  0  0  0
   -7.0857    4.5447  -18.9914 N   0  0  0  0  0  0  0  0  0  0  0  0
   -7.4030    4.4862  -17.6527 C   0  0  0  0  0  0  0  0  0  0  0  0
   -8.5659    4.0467  -17.0039 C   0  0  0  0  0  0  0  0  0  0  0  0
   -8.6443    4.2321  -15.6163 C   0  0  0  0  0  0  0  0  0  0  0  0
   -7.5919    4.8216  -14.9193 C   0  0  0  0  0  0  0  0  0  0  0  0
   -7.7324    5.2745  -13.5174 C   0  0  0  0  0  0  0  0  0  0  0  0
   -7.5739    6.4112  -13.3024 O   0  0  0  0  0  0  0  0  0  0  0  0
   -8.0647    4.1124  -12.5590 N   0  0  0  0  0  0  0  0  0  0  0  0
   -8.1746    4.0877  -11.1705 C   0  0  0  0  0  0  0  0  0  0  0  0
   -7.9496    5.2643  -10.4268 C   0  0  0  0  0  0  0  0  0  0  0  0
   -8.1031    5.2816   -9.0409 C   0  0  0  0  0  0  0  0  0  0  0  0
   -8.4786    4.1021   -8.4358 C   0  0  0  0  0  0  0  0  0  0  0  0
   -8.6876    2.9232   -9.1482 C   0  0  0  0  0  0  0  0  0  0  0  0
   -8.5296    2.8972  -10.5260 C   0  0  0  0  0  0  0  0  0  0  0  0
   -9.1509    1.8534   -8.2173 C   0  0  0  0  0  0  0  0  0  0  0  0
   -9.2608    2.5602   -6.9488 N   0  0  0  0  0  0  0  0  0  0  0  0
  -10.1326    2.0897   -5.9032 C   0  0  0  0  0  0  0  0  0  0  0  0
   -8.8690    3.8818   -7.0401 C   0  0  0  0  0  0  0  0  0  0  0  0
   -8.9076    4.7554   -6.1918 O   0  0  0  0  0  0  0  0  0  0  0  0
   -6.4110    5.1843  -15.5695 C   0  0  0  0  0  0  0  0  0  0  0  0
   -6.3180    5.0221  -16.9614 C   0  0  0  0  0  0  0  0  0  0  0  0
   -4.0060    7.5028  -17.7148 C   0  0  0  0  0  0  0  0  0  0  0  0
   -2.6137    8.0971  -17.9509 C   0  0  0  0  0  0  0  0  0  0  0  0
  1  2  1  0
  2  3  1  0
  3  4  1  0
  4  5  1  0
  5  6  1  0
  6  7  1  0
  7  8  2  0
  8  9  1  0
  9 10  1  0
 10 11  2  0
 11 12  1  0
 12 13  2  0
 13 14  1  0
 14 15  2  0
 14 16  1  0
 16 17  1  0
 17 18  2  0
 18 19  1  0
 19 20  2  0
 20 21  1  0
 21 22  2  0
 21 23  1  0
 23 24  1  0
 24 25  1  0
 24 26  1  0
 26 27  2  0
 13 28  1  0
 28 29  2  0
  6 30  1  0
 30 31  1  0
 31  3  1  0
 29  7  1  0
 29 10  1  0
 22 17  1  0
 26 20  1  0
M  END
>  <name>  (169) 
P142160

>  <alias>  (169) 
None

>  <smina_score_min>  (169) 
-10.605

>  <exports>  (169) 
['/opt/xchem-fragalysis-2/maxwin/BulkDock/OUTPUTS/openbind_xx01zvns2b_c2_elabs_1LOUTNY.sdf', '/opt/xchem-fragalysis-2/maxwin/BulkDock/OUTPUTS/openbind_xx01zvns2b_c2_elabs_1LSYIIV.sdf', '/opt/xchem-fragalysis-2/maxwin/openbind-hippo/xx01zvns2b/cycle_02/gnina/openbind_xx01zvns2b_c2_elabs_scored_6.2plus_products.sdf']

>  <tags>  (169) 
syndirella_placed,openbind_xx01zvns2b_c2_elabs,openbind_xx01zvns2b_c2_elabs_scored_6.2plus,syndirella_product,openbind_xx01zvns2b_c2_elabs_scored,openbind_xx01zvns2b_c2_elabs_scored_top80percent,BulkDock Fragalysis export,openbind_xx01zvns2b_c2_elabs_scored_top80percent_despaghettified

>  <subsites>  (169) 
1 - Z4590/B/203/1

>  <smiles>  (169) 
CCN1CCC(c2c[nH]c3ccc(C(=O)Nc4ccc5c(c4)CN(C)C5=O)cc23)CC1

>  <HIPPO Pose ID>  (169) 
142160

>  <energy_score>  (169) 
-51.423279

>  <inchikey>  (169) 
HSBAYFRXHLKIGB-UHFFFAOYSA-N

>  <gnina_score_min>  (169) 
6.283

>  <gnina_score>  (169) 
6.068

>  <ref_mols>  (169) 
Z4161a

>  <HIPPO Compound ID>  (169) 
199774

>  <distance_score>  (169) 
0.509014

>  <rmsd(smina/fragmenstein)>  (169) 
0.993

>  <ref_pdb>  (169) 
Z4161a

>  <inspiration_score>  (169) 
None

$$$$
P142163
     RDKit          3D

 31 35  0  0  0  0  0  0  0  0999 V2000
   -0.2107    9.1279  -16.3569 C   0  0  0  0  0  0  0  0  0  0  0  0
   -0.2685    7.8638  -17.2088 C   0  0  0  0  0  0  0  0  0  0  0  0
   -1.6000    7.2467  -17.2279 N   0  0  0  0  0  0  0  0  0  0  0  0
   -2.6209    8.1292  -17.8199 C   0  0  0  0  0  0  0  0  0  0  0  0
   -3.8618    7.3888  -18.3381 C   0  0  0  0  0  0  0  0  0  0  0  0
   -4.0876    6.1087  -17.5391 C   0  0  0  0  0  0  0  0  0  0  0  0
   -5.3852    5.4246  -17.8623 C   0  0  0  0  0  0  0  0  0  0  0  0
   -5.9020    5.0919  -19.0970 C   0  0  0  0  0  0  0  0  0  0  0  0
   -7.1441    4.5304  -18.9169 N   0  0  0  0  0  0  0  0  0  0  0  0
   -7.4466    4.4755  -17.5743 C   0  0  0  0  0  0  0  0  0  0  0  0
   -8.5953    4.0238  -16.9065 C   0  0  0  0  0  0  0  0  0  0  0  0
   -8.6600    4.2095  -15.5156 C   0  0  0  0  0  0  0  0  0  0  0  0
   -7.6043    4.8007  -14.8281 C   0  0  0  0  0  0  0  0  0  0  0  0
   -7.7131    5.2735  -13.4251 C   0  0  0  0  0  0  0  0  0  0  0  0
   -7.3685    6.3730  -13.2256 O   0  0  0  0  0  0  0  0  0  0  0  0
   -8.2051    4.1836  -12.4441 N   0  0  0  0  0  0  0  0  0  0  0  0
   -8.2834    4.1868  -11.0492 C   0  0  0  0  0  0  0  0  0  0  0  0
   -7.9153    5.3540  -10.3545 C   0  0  0  0  0  0  0  0  0  0  0  0
   -7.9005    5.3952   -8.9634 C   0  0  0  0  0  0  0  0  0  0  0  0
   -8.2836    4.2610   -8.2813 C   0  0  0  0  0  0  0  0  0  0  0  0
   -8.6961    3.1137   -8.9496 C   0  0  0  0  0  0  0  0  0  0  0  0
   -8.6859    3.0490  -10.3408 C   0  0  0  0  0  0  0  0  0  0  0  0
   -9.1005    2.0862   -7.9338 C   0  0  0  0  0  0  0  0  0  0  0  0
   -8.9939    2.7484   -6.5931 N   0  0  0  0  0  0  0  0  0  0  0  0
  -10.2781    2.9779   -5.9340 C   0  0  0  0  0  0  0  0  0  0  0  0
  -10.9888    1.7160   -5.5006 C   0  0  0  0  0  0  0  0  0  0  0  0
   -8.2995    4.0324   -6.8114 C   0  0  0  0  0  0  0  0  0  0  0  0
   -6.4357    5.1704  -15.5030 C   0  0  0  0  0  0  0  0  0  0  0  0
   -6.3625    5.0305  -16.8984 C   0  0  0  0  0  0  0  0  0  0  0  0
   -2.8751    5.1763  -17.6555 C   0  0  0  0  0  0  0  0  0  0  0  0
   -1.5706    5.9426  -17.9017 C   0  0  0  0  0  0  0  0  0  0  0  0
  1  2  1  0
  2  3  1  0
  3  4  1  0
  4  5  1  0
  5  6  1  0
  6  7  1  0
  7  8  2  0
  8  9  1  0
  9 10  1  0
 10 11  2  0
 11 12  1  0
 12 13  2  0
 13 14  1  0
 14 15  2  0
 14 16  1  0
 16 17  1  0
 17 18  2  0
 18 19  1  0
 19 20  2  0
 20 21  1  0
 21 22  2  0
 21 23  1  0
 23 24  1  0
 24 25  1  0
 25 26  1  0
 24 27  1  0
 13 28  1  0
 28 29  2  0
  6 30  1  0
 30 31  1  0
 31  3  1  0
 29  7  1  0
 29 10  1  0
 22 17  1  0
 27 20  1  0
M  END
>  <name>  (170) 
P142163

>  <alias>  (170) 
None

>  <smina_score_min>  (170) 
-10.104

>  <exports>  (170) 
['/opt/xchem-fragalysis-2/maxwin/BulkDock/OUTPUTS/openbind_xx01zvns2b_c2_elabs_1LOUTNY.sdf', '/opt/xchem-fragalysis-2/maxwin/BulkDock/OUTPUTS/openbind_xx01zvns2b_c2_elabs_1LSYIIV.sdf', '/opt/xchem-fragalysis-2/maxwin/openbind-hippo/xx01zvns2b/cycle_02/gnina/openbind_xx01zvns2b_c2_elabs_scored_6.2plus_products.sdf']

>  <tags>  (170) 
syndirella_placed,openbind_xx01zvns2b_c2_elabs,openbind_xx01zvns2b_c2_elabs_scored_6.2plus,syndirella_product,openbind_xx01zvns2b_c2_elabs_scored,openbind_xx01zvns2b_c2_elabs_scored_top80percent,BulkDock Fragalysis export,openbind_xx01zvns2b_c2_elabs_scored_top80percent_despaghettified

>  <subsites>  (170) 
1 - Z4590/B/203/1

>  <smiles>  (170) 
CCN1CCC(c2c[nH]c3ccc(C(=O)Nc4ccc5c(c4)CN(CC)C5)cc23)CC1

>  <HIPPO Pose ID>  (170) 
142163

>  <energy_score>  (170) 
-33.587604

>  <inchikey>  (170) 
HZRANPVTZZODLC-UHFFFAOYSA-N

>  <gnina_score_min>  (170) 
6.29

>  <gnina_score>  (170) 
6.098

>  <ref_mols>  (170) 
Z4161a

>  <HIPPO Compound ID>  (170) 
199779

>  <distance_score>  (170) 
0.525221

>  <rmsd(smina/fragmenstein)>  (170) 
1.111

>  <ref_pdb>  (170) 
Z4161a

>  <inspiration_score>  (170) 
None

$$$$
P142164
     RDKit          3D

 32 36  0  0  0  0  0  0  0  0999 V2000
   -0.3046    9.3184  -16.2108 C   0  0  0  0  0  0  0  0  0  0  0  0
   -0.3457    7.9909  -16.9591 C   0  0  0  0  0  0  0  0  0  0  0  0
   -1.6747    7.3558  -16.9504 N   0  0  0  0  0  0  0  0  0  0  0  0
   -2.6631    8.1378  -17.7085 C   0  0  0  0  0  0  0  0  0  0  0  0
   -4.0387    7.4697  -17.7091 C   0  0  0  0  0  0  0  0  0  0  0  0
   -3.9440    6.0440  -18.2582 C   0  0  0  0  0  0  0  0  0  0  0  0
   -5.2792    5.3609  -18.3442 C   0  0  0  0  0  0  0  0  0  0  0  0
   -5.8718    4.9526  -19.5193 C   0  0  0  0  0  0  0  0  0  0  0  0
   -7.1041    4.4275  -19.2372 N   0  0  0  0  0  0  0  0  0  0  0  0
   -7.3321    4.4590  -17.8844 C   0  0  0  0  0  0  0  0  0  0  0  0
   -8.4572    4.0523  -17.1545 C   0  0  0  0  0  0  0  0  0  0  0  0
   -8.4581    4.3046  -15.7824 C   0  0  0  0  0  0  0  0  0  0  0  0
   -7.3553    4.9131  -15.1814 C   0  0  0  0  0  0  0  0  0  0  0  0
   -7.4172    5.3919  -13.7849 C   0  0  0  0  0  0  0  0  0  0  0  0
   -7.0997    6.4930  -13.5653 O   0  0  0  0  0  0  0  0  0  0  0  0
   -7.9438    4.2967  -12.8383 N   0  0  0  0  0  0  0  0  0  0  0  0
   -8.0959    4.2940  -11.4599 C   0  0  0  0  0  0  0  0  0  0  0  0
   -7.8906    5.4843  -10.7326 C   0  0  0  0  0  0  0  0  0  0  0  0
   -8.0486    5.5156   -9.3526 C   0  0  0  0  0  0  0  0  0  0  0  0
   -8.4104    4.3354   -8.7476 C   0  0  0  0  0  0  0  0  0  0  0  0
   -8.6153    3.1444   -9.4474 C   0  0  0  0  0  0  0  0  0  0  0  0
   -8.4614    3.1070  -10.8185 C   0  0  0  0  0  0  0  0  0  0  0  0
   -9.0056    2.0618   -8.5032 C   0  0  0  0  0  0  0  0  0  0  0  0
   -9.0611    2.7839   -7.2445 N   0  0  0  0  0  0  0  0  0  0  0  0
   -9.3348    2.1263   -6.0069 C   0  0  0  0  0  0  0  0  0  0  0  0
  -10.8017    2.1225   -5.6557 C   0  0  0  0  0  0  0  0  0  0  0  0
   -8.6830    4.1011   -7.3345 C   0  0  0  0  0  0  0  0  0  0  0  0
   -8.5883    4.9406   -6.4583 O   0  0  0  0  0  0  0  0  0  0  0  0
   -6.2106    5.2496  -15.9122 C   0  0  0  0  0  0  0  0  0  0  0  0
   -6.2048    5.0417  -17.2997 C   0  0  0  0  0  0  0  0  0  0  0  0
   -2.8999    5.2502  -17.4746 C   0  0  0  0  0  0  0  0  0  0  0  0
   -1.5612    5.9871  -17.4885 C   0  0  0  0  0  0  0  0  0  0  0  0
  1  2  1  0
  2  3  1  0
  3  4  1  0
  4  5  1  0
  5  6  1  0
  6  7  1  0
  7  8  2  0
  8  9  1  0
  9 10  1  0
 10 11  2  0
 11 12  1  0
 12 13  2  0
 13 14  1  0
 14 15  2  0
 14 16  1  0
 16 17  1  0
 17 18  2  0
 18 19  1  0
 19 20  2  0
 20 21  1  0
 21 22  2  0
 21 23  1  0
 23 24  1  0
 24 25  1  0
 25 26  1  0
 24 27  1  0
 27 28  2  0
 13 29  1  0
 29 30  2  0
  6 31  1  0
 31 32  1  0
 32  3  1  0
 30  7  1  0
 30 10  1  0
 22 17  1  0
 27 20  1  0
M  END
>  <name>  (171) 
P142164

>  <alias>  (171) 
None

>  <smina_score_min>  (171) 
-9.382

>  <exports>  (171) 
['/opt/xchem-fragalysis-2/maxwin/BulkDock/OUTPUTS/openbind_xx01zvns2b_c2_elabs_1LOUTNY.sdf', '/opt/xchem-fragalysis-2/maxwin/BulkDock/OUTPUTS/openbind_xx01zvns2b_c2_elabs_1LSYIIV.sdf', '/opt/xchem-fragalysis-2/maxwin/openbind-hippo/xx01zvns2b/cycle_02/gnina/openbind_xx01zvns2b_c2_elabs_scored_6.2plus_products.sdf']

>  <tags>  (171) 
syndirella_placed,openbind_xx01zvns2b_c2_elabs,openbind_xx01zvns2b_c2_elabs_scored_6.2plus,syndirella_product,openbind_xx01zvns2b_c2_elabs_scored,openbind_xx01zvns2b_c2_elabs_scored_top80percent,BulkDock Fragalysis export,openbind_xx01zvns2b_c2_elabs_scored_top80percent_despaghettified

>  <subsites>  (171) 
1 - Z4590/B/203/1

>  <smiles>  (171) 
CCN1CCC(c2c[nH]c3ccc(C(=O)Nc4ccc5c(c4)CN(CC)C5=O)cc23)CC1

>  <HIPPO Pose ID>  (171) 
142164

>  <energy_score>  (171) 
-30.845878

>  <inchikey>  (171) 
GTBWZGJHWGKERJ-UHFFFAOYSA-N

>  <gnina_score_min>  (171) 
6.258

>  <gnina_score>  (171) 
6.158

>  <ref_mols>  (171) 
Z4161a

>  <HIPPO Compound ID>  (171) 
199781

>  <distance_score>  (171) 
0.555968

>  <rmsd(smina/fragmenstein)>  (171) 
0.792

>  <ref_pdb>  (171) 
Z4161a

>  <inspiration_score>  (171) 
None

$$$$
P142166
     RDKit          3D

 32 36  0  0  0  0  0  0  0  0999 V2000
   -9.1898    3.8372   -2.9480 C   0  0  0  0  0  0  0  0  0  0  0  0
   -8.5575    3.9231   -4.3190 C   0  0  0  0  0  0  0  0  0  0  0  0
   -9.3626    3.2475   -5.4537 C   0  0  0  0  0  0  0  0  0  0  0  0
   -8.5779    3.3587   -6.6757 N   0  0  0  0  0  0  0  0  0  0  0  0
   -8.4002    4.7514   -7.0788 C   0  0  0  0  0  0  0  0  0  0  0  0
   -8.3015    4.7140   -8.5511 C   0  0  0  0  0  0  0  0  0  0  0  0
   -7.9722    5.7704   -9.3634 C   0  0  0  0  0  0  0  0  0  0  0  0
   -7.9693    5.5387  -10.7235 C   0  0  0  0  0  0  0  0  0  0  0  0
   -8.2800    4.2724  -11.2581 C   0  0  0  0  0  0  0  0  0  0  0  0
   -8.2106    4.1539  -12.6453 N   0  0  0  0  0  0  0  0  0  0  0  0
   -7.9891    5.2270  -13.7339 C   0  0  0  0  0  0  0  0  0  0  0  0
   -7.9067    6.3898  -13.6461 O   0  0  0  0  0  0  0  0  0  0  0  0
   -7.7485    4.6785  -15.0785 C   0  0  0  0  0  0  0  0  0  0  0  0
   -8.7608    4.0938  -15.8279 C   0  0  0  0  0  0  0  0  0  0  0  0
   -8.6108    3.9357  -17.2118 C   0  0  0  0  0  0  0  0  0  0  0  0
   -7.4309    4.4168  -17.8001 C   0  0  0  0  0  0  0  0  0  0  0  0
   -7.0617    4.5168  -19.1215 N   0  0  0  0  0  0  0  0  0  0  0  0
   -5.8177    5.0923  -19.2225 C   0  0  0  0  0  0  0  0  0  0  0  0
   -5.3667    5.3937  -17.9547 C   0  0  0  0  0  0  0  0  0  0  0  0
   -4.0938    6.0857  -17.5554 C   0  0  0  0  0  0  0  0  0  0  0  0
   -3.8581    7.3888  -18.3149 C   0  0  0  0  0  0  0  0  0  0  0  0
   -2.6369    8.1280  -17.7530 C   0  0  0  0  0  0  0  0  0  0  0  0
   -1.6061    7.2430  -17.1841 N   0  0  0  0  0  0  0  0  0  0  0  0
   -0.2793    7.8707  -17.1614 C   0  0  0  0  0  0  0  0  0  0  0  0
   -0.2286    9.1259  -16.2960 C   0  0  0  0  0  0  0  0  0  0  0  0
   -1.5676    5.9514  -17.8806 C   0  0  0  0  0  0  0  0  0  0  0  0
   -2.8655    5.1709  -17.6489 C   0  0  0  0  0  0  0  0  0  0  0  0
   -6.3872    4.9607  -17.0542 C   0  0  0  0  0  0  0  0  0  0  0  0
   -6.5375    5.0640  -15.6641 C   0  0  0  0  0  0  0  0  0  0  0  0
   -8.6154    3.2041  -10.4119 C   0  0  0  0  0  0  0  0  0  0  0  0
   -8.6386    3.4506   -9.0410 C   0  0  0  0  0  0  0  0  0  0  0  0
   -9.0374    2.5900   -7.8658 C   0  0  0  0  0  0  0  0  0  0  0  0
  1  2  1  0
  2  3  1  0
  3  4  1  0
  4  5  1  0
  5  6  1  0
  6  7  2  0
  7  8  1  0
  8  9  2  0
  9 10  1  0
 10 11  1  0
 11 12  2  0
 11 13  1  0
 13 14  2  0
 14 15  1  0
 15 16  2  0
 16 17  1  0
 17 18  1  0
 18 19  2  0
 19 20  1  0
 20 21  1  0
 21 22  1  0
 22 23  1  0
 23 24  1  0
 24 25  1  0
 23 26  1  0
 26 27  1  0
 19 28  1  0
 28 29  2  0
  9 30  1  0
 30 31  2  0
 31 32  1  0
 32  4  1  0
 31  6  1  0
 29 13  1  0
 28 16  1  0
 27 20  1  0
M  END
>  <name>  (172) 
P142166

>  <alias>  (172) 
None

>  <smina_score_min>  (172) 
-10.06

>  <exports>  (172) 
['/opt/xchem-fragalysis-2/maxwin/BulkDock/OUTPUTS/openbind_xx01zvns2b_c2_elabs_1LOUTNY.sdf', '/opt/xchem-fragalysis-2/maxwin/BulkDock/OUTPUTS/openbind_xx01zvns2b_c2_elabs_1LSYIIV.sdf', '/opt/xchem-fragalysis-2/maxwin/openbind-hippo/xx01zvns2b/cycle_02/gnina/openbind_xx01zvns2b_c2_elabs_scored_6.2plus_products.sdf']

>  <tags>  (172) 
syndirella_placed,openbind_xx01zvns2b_c2_elabs,openbind_xx01zvns2b_c2_elabs_scored_6.2plus,syndirella_product,openbind_xx01zvns2b_c2_elabs_scored,openbind_xx01zvns2b_c2_elabs_scored_top80percent,BulkDock Fragalysis export,openbind_xx01zvns2b_c2_elabs_scored_top80percent_despaghettified

>  <subsites>  (172) 
1 - Z4590/B/203/1

>  <smiles>  (172) 
CCCN1Cc2ccc(NC(=O)c3ccc4[nH]cc(C5CCN(CC)CC5)c4c3)cc2C1

>  <HIPPO Pose ID>  (172) 
142166

>  <energy_score>  (172) 
-52.316126

>  <inchikey>  (172) 
IWNVMTXHNUMOOL-UHFFFAOYSA-N

>  <gnina_score_min>  (172) 
6.321

>  <gnina_score>  (172) 
6.188

>  <ref_mols>  (172) 
Z4161a

>  <HIPPO Compound ID>  (172) 
199785

>  <distance_score>  (172) 
0.7161

>  <rmsd(smina/fragmenstein)>  (172) 
1.147

>  <ref_pdb>  (172) 
Z4161a

>  <inspiration_score>  (172) 
None

$$$$
P142169
     RDKit          3D

 33 37  0  0  0  0  0  0  0  0999 V2000
   -0.2120    9.1379  -16.3184 C   0  0  0  0  0  0  0  0  0  0  0  0
   -0.2304    7.8763  -17.1756 C   0  0  0  0  0  0  0  0  0  0  0  0
   -1.5566    7.2519  -17.2479 N   0  0  0  0  0  0  0  0  0  0  0  0
   -2.5588    8.1332  -17.8732 C   0  0  0  0  0  0  0  0  0  0  0  0
   -3.7721    7.3900  -18.4487 C   0  0  0  0  0  0  0  0  0  0  0  0
   -4.0220    6.1033  -17.6694 C   0  0  0  0  0  0  0  0  0  0  0  0
   -5.3017    5.4156  -18.0475 C   0  0  0  0  0  0  0  0  0  0  0  0
   -5.7747    5.0874  -19.2995 C   0  0  0  0  0  0  0  0  0  0  0  0
   -7.0225    4.5244  -19.1637 N   0  0  0  0  0  0  0  0  0  0  0  0
   -7.3721    4.4608  -17.8347 C   0  0  0  0  0  0  0  0  0  0  0  0
   -8.5432    4.0023  -17.2108 C   0  0  0  0  0  0  0  0  0  0  0  0
   -8.6642    4.2034  -15.8291 C   0  0  0  0  0  0  0  0  0  0  0  0
   -7.6328    4.8116  -15.1214 C   0  0  0  0  0  0  0  0  0  0  0  0
   -7.7994    5.3381  -13.7565 C   0  0  0  0  0  0  0  0  0  0  0  0
   -7.6081    6.4791  -13.6043 O   0  0  0  0  0  0  0  0  0  0  0  0
   -8.1125    4.2340  -12.7325 N   0  0  0  0  0  0  0  0  0  0  0  0
   -8.1618    4.2777  -11.3463 C   0  0  0  0  0  0  0  0  0  0  0  0
   -7.7591    5.4625  -10.6956 C   0  0  0  0  0  0  0  0  0  0  0  0
   -7.7858    5.5758   -9.3125 C   0  0  0  0  0  0  0  0  0  0  0  0
   -8.2522    4.4950   -8.6065 C   0  0  0  0  0  0  0  0  0  0  0  0
   -8.6650    3.3179   -9.2420 C   0  0  0  0  0  0  0  0  0  0  0  0
   -8.5985    3.1746  -10.6163 C   0  0  0  0  0  0  0  0  0  0  0  0
   -9.2061    2.3870   -8.2028 C   0  0  0  0  0  0  0  0  0  0  0  0
   -9.4416    3.2929   -7.0451 N   0  0  0  0  0  0  0  0  0  0  0  0
   -9.4053    2.6123   -5.7590 C   0  0  0  0  0  0  0  0  0  0  0  0
  -10.5916    1.6850   -5.5102 C   0  0  0  0  0  0  0  0  0  0  0  0
  -11.7533    2.3863   -5.5232 F   0  0  0  0  0  0  0  0  0  0  0  0
  -10.6613    0.7384   -6.4707 F   0  0  0  0  0  0  0  0  0  0  0  0
   -8.4527    4.3641   -7.1400 C   0  0  0  0  0  0  0  0  0  0  0  0
   -6.4317    5.1643  -15.7377 C   0  0  0  0  0  0  0  0  0  0  0  0
   -6.3122    5.0180  -17.1238 C   0  0  0  0  0  0  0  0  0  0  0  0
   -2.8021    5.1770  -17.7402 C   0  0  0  0  0  0  0  0  0  0  0  0
   -1.4936    5.9522  -17.9285 C   0  0  0  0  0  0  0  0  0  0  0  0
  1  2  1  0
  2  3  1  0
  3  4  1  0
  4  5  1  0
  5  6  1  0
  6  7  1  0
  7  8  2  0
  8  9  1  0
  9 10  1  0
 10 11  2  0
 11 12  1  0
 12 13  2  0
 13 14  1  0
 14 15  2  0
 14 16  1  0
 16 17  1  0
 17 18  2  0
 18 19  1  0
 19 20  2  0
 20 21  1  0
 21 22  2  0
 21 23  1  0
 23 24  1  0
 24 25  1  0
 25 26  1  0
 26 27  1  0
 26 28  1  0
 24 29  1  0
 13 30  1  0
 30 31  2  0
  6 32  1  0
 32 33  1  0
 33  3  1  0
 31  7  1  0
 31 10  1  0
 22 17  1  0
 29 20  1  0
M  END
>  <name>  (173) 
P142169

>  <alias>  (173) 
None

>  <smina_score_min>  (173) 
-10.593

>  <exports>  (173) 
['/opt/xchem-fragalysis-2/maxwin/BulkDock/OUTPUTS/openbind_xx01zvns2b_c2_elabs_1LOUTNY.sdf', '/opt/xchem-fragalysis-2/maxwin/BulkDock/OUTPUTS/openbind_xx01zvns2b_c2_elabs_1LSYIIV.sdf', '/opt/xchem-fragalysis-2/maxwin/openbind-hippo/xx01zvns2b/cycle_02/gnina/openbind_xx01zvns2b_c2_elabs_scored_6.2plus_products.sdf']

>  <tags>  (173) 
syndirella_placed,openbind_xx01zvns2b_c2_elabs,openbind_xx01zvns2b_c2_elabs_scored_6.2plus,syndirella_product,openbind_xx01zvns2b_c2_elabs_scored,openbind_xx01zvns2b_c2_elabs_scored_top80percent,BulkDock Fragalysis export,openbind_xx01zvns2b_c2_elabs_scored_top80percent_despaghettified

>  <subsites>  (173) 
1 - Z4590/B/203/1

>  <smiles>  (173) 
CCN1CCC(c2c[nH]c3ccc(C(=O)Nc4ccc5c(c4)CN(CC(F)F)C5)cc23)CC1

>  <HIPPO Pose ID>  (173) 
142169

>  <energy_score>  (173) 
-41.311096

>  <inchikey>  (173) 
VBGRLDAOCHNVME-UHFFFAOYSA-N

>  <gnina_score_min>  (173) 
6.396

>  <gnina_score>  (173) 
6.185

>  <ref_mols>  (173) 
Z4161a

>  <HIPPO Compound ID>  (173) 
199790

>  <distance_score>  (173) 
0.686973

>  <rmsd(smina/fragmenstein)>  (173) 
1.285

>  <ref_pdb>  (173) 
Z4161a

>  <inspiration_score>  (173) 
None

$$$$
P142171
     RDKit          3D

 34 38  0  0  0  0  0  0  0  0999 V2000
   -0.3335    9.3070  -16.2161 C   0  0  0  0  0  0  0  0  0  0  0  0
   -0.3726    7.9837  -16.9719 C   0  0  0  0  0  0  0  0  0  0  0  0
   -1.6989    7.3427  -16.9605 N   0  0  0  0  0  0  0  0  0  0  0  0
   -1.5819    5.9770  -17.5059 C   0  0  0  0  0  0  0  0  0  0  0  0
   -2.9173    5.2337  -17.4899 C   0  0  0  0  0  0  0  0  0  0  0  0
   -3.9693    6.0257  -18.2649 C   0  0  0  0  0  0  0  0  0  0  0  0
   -5.3024    5.3368  -18.3484 C   0  0  0  0  0  0  0  0  0  0  0  0
   -5.9003    4.9329  -19.5222 C   0  0  0  0  0  0  0  0  0  0  0  0
   -7.1305    4.4033  -19.2367 N   0  0  0  0  0  0  0  0  0  0  0  0
   -7.3520    4.4253  -17.8827 C   0  0  0  0  0  0  0  0  0  0  0  0
   -8.4730    4.0122  -17.1470 C   0  0  0  0  0  0  0  0  0  0  0  0
   -8.4663    4.2510  -15.7720 C   0  0  0  0  0  0  0  0  0  0  0  0
   -7.3596    4.8554  -15.1801 C   0  0  0  0  0  0  0  0  0  0  0  0
   -7.4294    5.3785  -13.8071 C   0  0  0  0  0  0  0  0  0  0  0  0
   -7.2364    6.5214  -13.6633 O   0  0  0  0  0  0  0  0  0  0  0  0
   -7.7485    4.2800  -12.7721 N   0  0  0  0  0  0  0  0  0  0  0  0
   -7.9822    4.3683  -11.4057 C   0  0  0  0  0  0  0  0  0  0  0  0
   -7.8577    5.6304  -10.7962 C   0  0  0  0  0  0  0  0  0  0  0  0
   -8.0749    5.7967   -9.4410 C   0  0  0  0  0  0  0  0  0  0  0  0
   -8.3997    4.6756   -8.7159 C   0  0  0  0  0  0  0  0  0  0  0  0
   -8.5149    3.4114   -9.2932 C   0  0  0  0  0  0  0  0  0  0  0  0
   -8.3201    3.2374  -10.6542 C   0  0  0  0  0  0  0  0  0  0  0  0
   -8.9015    2.4319   -8.2256 C   0  0  0  0  0  0  0  0  0  0  0  0
   -8.7561    3.1964   -6.9537 N   0  0  0  0  0  0  0  0  0  0  0  0
   -9.7296    2.8220   -5.9489 C   0  0  0  0  0  0  0  0  0  0  0  0
   -9.9025    3.7781   -4.7560 C   0  0  0  0  0  0  0  0  0  0  0  0
   -8.7116    4.4125   -3.9965 C   0  0  0  0  0  0  0  0  0  0  0  0
   -7.3279    3.8275   -4.2387 C   0  0  0  0  0  0  0  0  0  0  0  0
   -9.0064    4.4256   -2.4905 C   0  0  0  0  0  0  0  0  0  0  0  0
   -8.7178    4.6173   -7.2730 C   0  0  0  0  0  0  0  0  0  0  0  0
   -6.2187    5.2005  -15.9140 C   0  0  0  0  0  0  0  0  0  0  0  0
   -6.2208    5.0043  -17.3017 C   0  0  0  0  0  0  0  0  0  0  0  0
   -4.0673    7.4485  -17.7085 C   0  0  0  0  0  0  0  0  0  0  0  0
   -2.6945    8.1233  -17.7106 C   0  0  0  0  0  0  0  0  0  0  0  0
  1  2  1  0
  2  3  1  0
  3  4  1  0
  4  5  1  0
  5  6  1  0
  6  7  1  0
  7  8  2  0
  8  9  1  0
  9 10  1  0
 10 11  2  0
 11 12  1  0
 12 13  2  0
 13 14  1  0
 14 15  2  0
 14 16  1  0
 16 17  1  0
 17 18  2  0
 18 19  1  0
 19 20  2  0
 20 21  1  0
 21 22  2  0
 21 23  1  0
 23 24  1  0
 24 25  1  0
 25 26  1  0
 26 27  1  0
 27 28  1  0
 27 29  1  0
 24 30  1  0
 13 31  1  0
 31 32  2  0
  6 33  1  0
 33 34  1  0
 34  3  1  0
 32  7  1  0
 32 10  1  0
 22 17  1  0
 30 20  1  0
M  END
>  <name>  (174) 
P142171

>  <alias>  (174) 
None

>  <smina_score_min>  (174) 
-9.929

>  <exports>  (174) 
['/opt/xchem-fragalysis-2/maxwin/BulkDock/OUTPUTS/openbind_xx01zvns2b_c2_elabs_1LOUTNY.sdf', '/opt/xchem-fragalysis-2/maxwin/BulkDock/OUTPUTS/openbind_xx01zvns2b_c2_elabs_1LSYIIV.sdf', '/opt/xchem-fragalysis-2/maxwin/openbind-hippo/xx01zvns2b/cycle_02/gnina/openbind_xx01zvns2b_c2_elabs_scored_6.2plus_products.sdf']

>  <tags>  (174) 
syndirella_placed,openbind_xx01zvns2b_c2_elabs,openbind_xx01zvns2b_c2_elabs_scored_6.2plus,syndirella_product,openbind_xx01zvns2b_c2_elabs_scored,openbind_xx01zvns2b_c2_elabs_scored_top80percent,BulkDock Fragalysis export,openbind_xx01zvns2b_c2_elabs_scored_top80percent_despaghettified

>  <subsites>  (174) 
1 - Z4590/B/203/1

>  <smiles>  (174) 
CCN1CCC(c2c[nH]c3ccc(C(=O)Nc4ccc5c(c4)CN(CCC(C)C)C5)cc23)CC1

>  <HIPPO Pose ID>  (174) 
142171

>  <energy_score>  (174) 
-60.133273

>  <inchikey>  (174) 
WJWIWAYUKVHVLE-UHFFFAOYSA-N

>  <gnina_score_min>  (174) 
6.491

>  <gnina_score>  (174) 
6.376

>  <ref_mols>  (174) 
Z4161a

>  <HIPPO Compound ID>  (174) 
199792

>  <distance_score>  (174) 
0.660355

>  <rmsd(smina/fragmenstein)>  (174) 
1.348

>  <ref_pdb>  (174) 
Z4161a

>  <inspiration_score>  (174) 
None

$$$$
P142172
     RDKit          3D

 34 38  0  0  0  0  0  0  0  0999 V2000
   -7.6597    4.5509   -3.0036 C   0  0  0  0  0  0  0  0  0  0  0  0
   -7.8813    3.7999   -4.3090 C   0  0  0  0  0  0  0  0  0  0  0  0
   -9.3754    3.5694   -4.5599 C   0  0  0  0  0  0  0  0  0  0  0  0
   -9.7310    2.7680   -5.8216 C   0  0  0  0  0  0  0  0  0  0  0  0
   -9.0801    3.2139   -7.0307 N   0  0  0  0  0  0  0  0  0  0  0  0
   -9.0374    2.3657   -8.2274 C   0  0  0  0  0  0  0  0  0  0  0  0
   -8.5917    3.3262   -9.2849 C   0  0  0  0  0  0  0  0  0  0  0  0
   -8.3834    3.1648  -10.6464 C   0  0  0  0  0  0  0  0  0  0  0  0
   -8.0268    4.3023  -11.3890 C   0  0  0  0  0  0  0  0  0  0  0  0
   -7.8627    4.2382  -12.7675 N   0  0  0  0  0  0  0  0  0  0  0  0
   -7.4609    5.3317  -13.7818 C   0  0  0  0  0  0  0  0  0  0  0  0
   -7.2794    6.4758  -13.6300 O   0  0  0  0  0  0  0  0  0  0  0  0
   -7.3743    4.8232  -15.1611 C   0  0  0  0  0  0  0  0  0  0  0  0
   -8.4785    4.2273  -15.7677 C   0  0  0  0  0  0  0  0  0  0  0  0
   -8.4802    4.0043  -17.1451 C   0  0  0  0  0  0  0  0  0  0  0  0
   -7.3567    4.4252  -17.8712 C   0  0  0  0  0  0  0  0  0  0  0  0
   -7.1317    4.4169  -19.2249 N   0  0  0  0  0  0  0  0  0  0  0  0
   -5.9014    4.9498  -19.5012 C   0  0  0  0  0  0  0  0  0  0  0  0
   -5.3078    5.3436  -18.3217 C   0  0  0  0  0  0  0  0  0  0  0  0
   -3.9759    6.0337  -18.2330 C   0  0  0  0  0  0  0  0  0  0  0  0
   -4.0739    7.4513  -17.6646 C   0  0  0  0  0  0  0  0  0  0  0  0
   -2.7022    8.1285  -17.6720 C   0  0  0  0  0  0  0  0  0  0  0  0
   -1.6988    7.3442  -16.9360 N   0  0  0  0  0  0  0  0  0  0  0  0
   -0.3728    7.9861  -16.9580 C   0  0  0  0  0  0  0  0  0  0  0  0
   -0.3273    9.3092  -16.2024 C   0  0  0  0  0  0  0  0  0  0  0  0
   -1.5857    5.9810  -17.4883 C   0  0  0  0  0  0  0  0  0  0  0  0
   -2.9208    5.2373  -17.4676 C   0  0  0  0  0  0  0  0  0  0  0  0
   -6.2283    4.9997  -17.2796 C   0  0  0  0  0  0  0  0  0  0  0  0
   -6.2324    5.1816  -15.8885 C   0  0  0  0  0  0  0  0  0  0  0  0
   -7.8620    5.5563  -10.7657 C   0  0  0  0  0  0  0  0  0  0  0  0
   -8.0859    5.7165   -9.4114 C   0  0  0  0  0  0  0  0  0  0  0  0
   -8.4549    4.5912   -8.7170 C   0  0  0  0  0  0  0  0  0  0  0  0
   -8.8620    4.5409   -7.3269 C   0  0  0  0  0  0  0  0  0  0  0  0
   -9.0027    5.5400   -6.6446 O   0  0  0  0  0  0  0  0  0  0  0  0
  1  2  1  0
  2  3  1  0
  3  4  1  0
  4  5  1  0
  5  6  1  0
  6  7  1  0
  7  8  2  0
  8  9  1  0
  9 10  1  0
 10 11  1  0
 11 12  2  0
 11 13  1  0
 13 14  2  0
 14 15  1  0
 15 16  2  0
 16 17  1  0
 17 18  1  0
 18 19  2  0
 19 20  1  0
 20 21  1  0
 21 22  1  0
 22 23  1  0
 23 24  1  0
 24 25  1  0
 23 26  1  0
 26 27  1  0
 19 28  1  0
 28 29  2  0
  9 30  2  0
 30 31  1  0
 31 32  2  0
 32 33  1  0
 33 34  2  0
 33  5  1  0
 32  7  1  0
 29 13  1  0
 28 16  1  0
 27 20  1  0
M  END
>  <name>  (175) 
P142172

>  <alias>  (175) 
None

>  <smina_score_min>  (175) 
-8.13

>  <exports>  (175) 
['/opt/xchem-fragalysis-2/maxwin/BulkDock/OUTPUTS/openbind_xx01zvns2b_c2_elabs_1LOUTNY.sdf', '/opt/xchem-fragalysis-2/maxwin/BulkDock/OUTPUTS/openbind_xx01zvns2b_c2_elabs_1LSYIIV.sdf', '/opt/xchem-fragalysis-2/maxwin/openbind-hippo/xx01zvns2b/cycle_02/gnina/openbind_xx01zvns2b_c2_elabs_scored_6.2plus_products.sdf']

>  <tags>  (175) 
syndirella_placed,openbind_xx01zvns2b_c2_elabs,openbind_xx01zvns2b_c2_elabs_scored_6.2plus,syndirella_product,openbind_xx01zvns2b_c2_elabs_scored,openbind_xx01zvns2b_c2_elabs_scored_top80percent,BulkDock Fragalysis export,openbind_xx01zvns2b_c2_elabs_scored_top80percent_despaghettified

>  <subsites>  (175) 
1 - Z4590/B/203/1

>  <smiles>  (175) 
CCCCN1Cc2cc(NC(=O)c3ccc4[nH]cc(C5CCN(CC)CC5)c4c3)ccc2C1=O

>  <HIPPO Pose ID>  (175) 
142172

>  <energy_score>  (175) 
-42.359133

>  <inchikey>  (175) 
IZKKRWPVQHPXIO-UHFFFAOYSA-N

>  <gnina_score_min>  (175) 
6.337

>  <gnina_score>  (175) 
6.363

>  <ref_mols>  (175) 
Z4161a

>  <HIPPO Compound ID>  (175) 
199793

>  <distance_score>  (175) 
0.621503

>  <rmsd(smina/fragmenstein)>  (175) 
0.966

>  <ref_pdb>  (175) 
Z4161a

>  <inspiration_score>  (175) 
None

$$$$
P142176
     RDKit          3D

 34 38  0  0  0  0  0  0  0  0999 V2000
   -0.3175    9.3283  -16.2067 C   0  0  0  0  0  0  0  0  0  0  0  0
   -0.3816    7.9984  -16.9488 C   0  0  0  0  0  0  0  0  0  0  0  0
   -1.7110    7.3655  -16.9017 N   0  0  0  0  0  0  0  0  0  0  0  0
   -2.7205    8.1482  -17.6305 C   0  0  0  0  0  0  0  0  0  0  0  0
   -4.0956    7.4784  -17.5988 C   0  0  0  0  0  0  0  0  0  0  0  0
   -4.0112    6.0568  -18.1579 C   0  0  0  0  0  0  0  0  0  0  0  0
   -5.3471    5.3727  -18.2319 C   0  0  0  0  0  0  0  0  0  0  0  0
   -5.9436    4.9695  -19.4077 C   0  0  0  0  0  0  0  0  0  0  0  0
   -7.1729    4.4399  -19.1253 N   0  0  0  0  0  0  0  0  0  0  0  0
   -7.3936    4.4599  -17.7702 C   0  0  0  0  0  0  0  0  0  0  0  0
   -8.5133    4.0414  -17.0389 C   0  0  0  0  0  0  0  0  0  0  0  0
   -8.5085    4.2705  -15.6616 C   0  0  0  0  0  0  0  0  0  0  0  0
   -7.4091    4.8734  -15.0507 C   0  0  0  0  0  0  0  0  0  0  0  0
   -7.4716    5.3131  -13.6356 C   0  0  0  0  0  0  0  0  0  0  0  0
   -7.1535    6.4103  -13.3918 O   0  0  0  0  0  0  0  0  0  0  0  0
   -7.9870    4.1902  -12.7079 N   0  0  0  0  0  0  0  0  0  0  0  0
   -8.1239    4.1530  -11.3232 C   0  0  0  0  0  0  0  0  0  0  0  0
   -7.9249    5.3204  -10.5679 C   0  0  0  0  0  0  0  0  0  0  0  0
   -8.0068    5.2950   -9.1782 C   0  0  0  0  0  0  0  0  0  0  0  0
   -8.2893    4.0886   -8.5696 C   0  0  0  0  0  0  0  0  0  0  0  0
   -8.5074    2.9316   -9.3074 C   0  0  0  0  0  0  0  0  0  0  0  0
   -8.4350    2.9453  -10.6913 C   0  0  0  0  0  0  0  0  0  0  0  0
   -8.7640    1.7887   -8.3768 C   0  0  0  0  0  0  0  0  0  0  0  0
   -8.8064    2.3843   -7.0085 N   0  0  0  0  0  0  0  0  0  0  0  0
  -10.1243    2.1852   -6.3892 C   0  0  0  0  0  0  0  0  0  0  0  0
  -10.5081    2.9770   -5.1368 C   0  0  0  0  0  0  0  0  0  0  0  0
   -9.5493    3.0351   -4.1905 F   0  0  0  0  0  0  0  0  0  0  0  0
  -10.8002    4.2649   -5.4615 F   0  0  0  0  0  0  0  0  0  0  0  0
  -11.6260    2.4620   -4.5747 F   0  0  0  0  0  0  0  0  0  0  0  0
   -8.3789    3.7889   -7.1165 C   0  0  0  0  0  0  0  0  0  0  0  0
   -6.2725    5.2343  -15.7889 C   0  0  0  0  0  0  0  0  0  0  0  0
   -6.2668    5.0423  -17.1826 C   0  0  0  0  0  0  0  0  0  0  0  0
   -2.9531    5.2603  -17.3977 C   0  0  0  0  0  0  0  0  0  0  0  0
   -1.6136    5.9954  -17.4398 C   0  0  0  0  0  0  0  0  0  0  0  0
  1  2  1  0
  2  3  1  0
  3  4  1  0
  4  5  1  0
  5  6  1  0
  6  7  1  0
  7  8  2  0
  8  9  1  0
  9 10  1  0
 10 11  2  0
 11 12  1  0
 12 13  2  0
 13 14  1  0
 14 15  2  0
 14 16  1  0
 16 17  1  0
 17 18  2  0
 18 19  1  0
 19 20  2  0
 20 21  1  0
 21 22  2  0
 21 23  1  0
 23 24  1  0
 24 25  1  0
 25 26  1  0
 26 27  1  0
 26 28  1  0
 26 29  1  0
 24 30  1  0
 13 31  1  0
 31 32  2  0
  6 33  1  0
 33 34  1  0
 34  3  1  0
 32  7  1  0
 32 10  1  0
 22 17  1  0
 30 20  1  0
M  END
>  <name>  (176) 
P142176

>  <alias>  (176) 
None

>  <smina_score_min>  (176) 
-10.072

>  <exports>  (176) 
['/opt/xchem-fragalysis-2/maxwin/BulkDock/OUTPUTS/openbind_xx01zvns2b_c2_elabs_1LOUTNY.sdf', '/opt/xchem-fragalysis-2/maxwin/BulkDock/OUTPUTS/openbind_xx01zvns2b_c2_elabs_1LSYIIV.sdf', '/opt/xchem-fragalysis-2/maxwin/openbind-hippo/xx01zvns2b/cycle_02/gnina/openbind_xx01zvns2b_c2_elabs_scored_6.2plus_products.sdf']

>  <tags>  (176) 
syndirella_placed,openbind_xx01zvns2b_c2_elabs,openbind_xx01zvns2b_c2_elabs_scored_6.2plus,syndirella_product,openbind_xx01zvns2b_c2_elabs_scored,openbind_xx01zvns2b_c2_elabs_scored_top80percent,BulkDock Fragalysis export,openbind_xx01zvns2b_c2_elabs_scored_top80percent_despaghettified

>  <subsites>  (176) 
1 - Z4590/B/203/1

>  <smiles>  (176) 
CCN1CCC(c2c[nH]c3ccc(C(=O)Nc4ccc5c(c4)CN(CC(F)(F)F)C5)cc23)CC1

>  <HIPPO Pose ID>  (176) 
142176

>  <energy_score>  (176) 
-47.235148

>  <inchikey>  (176) 
KDDNLHHSJAGYND-UHFFFAOYSA-N

>  <gnina_score_min>  (176) 
6.409

>  <gnina_score>  (176) 
6.291

>  <ref_mols>  (176) 
Z4161a

>  <HIPPO Compound ID>  (176) 
199796

>  <distance_score>  (176) 
0.426097

>  <rmsd(smina/fragmenstein)>  (176) 
1.013

>  <ref_pdb>  (176) 
Z4161a

>  <inspiration_score>  (176) 
None

$$$$
P142177
     RDKit          3D

 34 38  0  0  0  0  0  0  0  0999 V2000
   -0.3219    9.3113  -16.2038 C   0  0  0  0  0  0  0  0  0  0  0  0
   -0.3750    7.9879  -16.9583 C   0  0  0  0  0  0  0  0  0  0  0  0
   -1.7019    7.3485  -16.9265 N   0  0  0  0  0  0  0  0  0  0  0  0
   -1.5952    5.9845  -17.4780 C   0  0  0  0  0  0  0  0  0  0  0  0
   -2.9314    5.2429  -17.4471 C   0  0  0  0  0  0  0  0  0  0  0  0
   -3.9911    6.0408  -18.2044 C   0  0  0  0  0  0  0  0  0  0  0  0
   -5.3252    5.3536  -18.2827 C   0  0  0  0  0  0  0  0  0  0  0  0
   -5.9274    4.9614  -19.4587 C   0  0  0  0  0  0  0  0  0  0  0  0
   -7.1566    4.4307  -19.1749 N   0  0  0  0  0  0  0  0  0  0  0  0
   -7.3714    4.4373  -17.8191 C   0  0  0  0  0  0  0  0  0  0  0  0
   -8.4893    4.0158  -17.0849 C   0  0  0  0  0  0  0  0  0  0  0  0
   -8.4748    4.2302  -15.7056 C   0  0  0  0  0  0  0  0  0  0  0  0
   -7.3654    4.8202  -15.1021 C   0  0  0  0  0  0  0  0  0  0  0  0
   -7.4322    5.2962  -13.7073 C   0  0  0  0  0  0  0  0  0  0  0  0
   -7.2391    6.4346  -13.5274 O   0  0  0  0  0  0  0  0  0  0  0  0
   -7.8312    4.1787  -12.7164 N   0  0  0  0  0  0  0  0  0  0  0  0
   -7.9781    4.2076  -11.3333 C   0  0  0  0  0  0  0  0  0  0  0  0
   -7.7809    5.4347  -10.6697 C   0  0  0  0  0  0  0  0  0  0  0  0
   -7.9905    5.5510   -9.3065 C   0  0  0  0  0  0  0  0  0  0  0  0
   -8.3821    4.4117   -8.6435 C   0  0  0  0  0  0  0  0  0  0  0  0
   -8.5552    3.1749   -9.2543 C   0  0  0  0  0  0  0  0  0  0  0  0
   -8.3544    3.0555  -10.6224 C   0  0  0  0  0  0  0  0  0  0  0  0
   -9.0378    2.1930   -8.2340 C   0  0  0  0  0  0  0  0  0  0  0  0
   -9.1556    3.0135   -7.0200 N   0  0  0  0  0  0  0  0  0  0  0  0
  -10.0189    2.5700   -5.9345 C   0  0  0  0  0  0  0  0  0  0  0  0
  -10.1704    3.4830   -4.7055 C   0  0  0  0  0  0  0  0  0  0  0  0
   -9.1618    3.3990   -3.6964 O   0  0  0  0  0  0  0  0  0  0  0  0
   -7.9685    4.0804   -4.0324 C   0  0  0  0  0  0  0  0  0  0  0  0
   -8.8195    4.3292   -7.2626 C   0  0  0  0  0  0  0  0  0  0  0  0
   -8.9068    5.3186   -6.5589 O   0  0  0  0  0  0  0  0  0  0  0  0
   -6.2324    5.1867  -15.8404 C   0  0  0  0  0  0  0  0  0  0  0  0
   -6.2385    5.0098  -17.2336 C   0  0  0  0  0  0  0  0  0  0  0  0
   -4.0822    7.4589  -17.6363 C   0  0  0  0  0  0  0  0  0  0  0  0
   -2.7094    8.1337  -17.6555 C   0  0  0  0  0  0  0  0  0  0  0  0
  1  2  1  0
  2  3  1  0
  3  4  1  0
  4  5  1  0
  5  6  1  0
  6  7  1  0
  7  8  2  0
  8  9  1  0
  9 10  1  0
 10 11  2  0
 11 12  1  0
 12 13  2  0
 13 14  1  0
 14 15  2  0
 14 16  1  0
 16 17  1  0
 17 18  2  0
 18 19  1  0
 19 20  2  0
 20 21  1  0
 21 22  2  0
 21 23  1  0
 23 24  1  0
 24 25  1  0
 25 26  1  0
 26 27  1  0
 27 28  1  0
 24 29  1  0
 29 30  2  0
 13 31  1  0
 31 32  2  0
  6 33  1  0
 33 34  1  0
 34  3  1  0
 32  7  1  0
 32 10  1  0
 22 17  1  0
 29 20  1  0
M  END
>  <name>  (177) 
P142177

>  <alias>  (177) 
None

>  <smina_score_min>  (177) 
-9.65

>  <exports>  (177) 
['/opt/xchem-fragalysis-2/maxwin/BulkDock/OUTPUTS/openbind_xx01zvns2b_c2_elabs_1LOUTNY.sdf', '/opt/xchem-fragalysis-2/maxwin/BulkDock/OUTPUTS/openbind_xx01zvns2b_c2_elabs_1LSYIIV.sdf', '/opt/xchem-fragalysis-2/maxwin/openbind-hippo/xx01zvns2b/cycle_02/gnina/openbind_xx01zvns2b_c2_elabs_scored_6.2plus_products.sdf']

>  <tags>  (177) 
syndirella_placed,openbind_xx01zvns2b_c2_elabs,openbind_xx01zvns2b_c2_elabs_scored_6.2plus,syndirella_product,openbind_xx01zvns2b_c2_elabs_scored,openbind_xx01zvns2b_c2_elabs_scored_top80percent,BulkDock Fragalysis export,openbind_xx01zvns2b_c2_elabs_scored_top80percent_despaghettified

>  <subsites>  (177) 
1 - Z4590/B/203/1

>  <smiles>  (177) 
CCN1CCC(c2c[nH]c3ccc(C(=O)Nc4ccc5c(c4)CN(CCOC)C5=O)cc23)CC1

>  <HIPPO Pose ID>  (177) 
142177

>  <energy_score>  (177) 
-40.732833

>  <inchikey>  (177) 
UWZAJOQOOPPXEU-UHFFFAOYSA-N

>  <gnina_score_min>  (177) 
6.406

>  <gnina_score>  (177) 
6.303

>  <ref_mols>  (177) 
Z4161a

>  <HIPPO Compound ID>  (177) 
199798

>  <distance_score>  (177) 
0.545938

>  <rmsd(smina/fragmenstein)>  (177) 
1.028

>  <ref_pdb>  (177) 
Z4161a

>  <inspiration_score>  (177) 
None

$$$$
P142179
     RDKit          3D

 35 40  0  0  0  0  0  0  0  0999 V2000
   -0.3054    9.1524  -16.2924 C   0  0  0  0  0  0  0  0  0  0  0  0
   -0.3168    7.9388  -17.2155 C   0  0  0  0  0  0  0  0  0  0  0  0
   -1.6261    7.2781  -17.2767 N   0  0  0  0  0  0  0  0  0  0  0  0
   -1.4892    5.9389  -17.8895 C   0  0  0  0  0  0  0  0  0  0  0  0
   -2.8043    5.3511  -18.4216 C   0  0  0  0  0  0  0  0  0  0  0  0
   -3.9913    5.9144  -17.6511 C   0  0  0  0  0  0  0  0  0  0  0  0
   -5.3153    5.3029  -18.0137 C   0  0  0  0  0  0  0  0  0  0  0  0
   -5.8439    5.0411  -19.2590 C   0  0  0  0  0  0  0  0  0  0  0  0
   -7.1076    4.5195  -19.0999 N   0  0  0  0  0  0  0  0  0  0  0  0
   -7.4203    4.4334  -17.7623 C   0  0  0  0  0  0  0  0  0  0  0  0
   -8.5861    3.9989  -17.1093 C   0  0  0  0  0  0  0  0  0  0  0  0
   -8.6509    4.1505  -15.7150 C   0  0  0  0  0  0  0  0  0  0  0  0
   -7.5751    4.6927  -15.0219 C   0  0  0  0  0  0  0  0  0  0  0  0
   -7.6669    5.1786  -13.6348 C   0  0  0  0  0  0  0  0  0  0  0  0
   -7.4015    6.3078  -13.4842 O   0  0  0  0  0  0  0  0  0  0  0  0
   -8.0021    4.0804  -12.5980 N   0  0  0  0  0  0  0  0  0  0  0  0
   -8.1678    4.1604  -11.2164 C   0  0  0  0  0  0  0  0  0  0  0  0
   -7.8910    5.4182  -10.6317 C   0  0  0  0  0  0  0  0  0  0  0  0
   -8.0196    5.6322   -9.2755 C   0  0  0  0  0  0  0  0  0  0  0  0
   -8.4332    4.5562   -8.5334 C   0  0  0  0  0  0  0  0  0  0  0  0
   -8.7056    3.3078   -9.0572 C   0  0  0  0  0  0  0  0  0  0  0  0
   -8.5707    3.0723  -10.4216 C   0  0  0  0  0  0  0  0  0  0  0  0
   -9.2347    2.5111   -7.9314 C   0  0  0  0  0  0  0  0  0  0  0  0
   -9.7199    1.4044   -8.0566 O   0  0  0  0  0  0  0  0  0  0  0  0
   -9.1821    3.3176   -6.8091 N   0  0  0  0  0  0  0  0  0  0  0  0
   -9.8504    3.0065   -5.5524 C   0  0  0  0  0  0  0  0  0  0  0  0
   -9.4518    3.9661   -4.4536 C   0  0  0  0  0  0  0  0  0  0  0  0
   -9.0505    3.6030   -3.0477 C   0  0  0  0  0  0  0  0  0  0  0  0
   -8.0036    4.0473   -4.0198 C   0  0  0  0  0  0  0  0  0  0  0  0
   -8.8014    4.5815   -7.1430 C   0  0  0  0  0  0  0  0  0  0  0  0
   -8.8148    5.6324   -6.5245 O   0  0  0  0  0  0  0  0  0  0  0  0
   -6.3924    5.0448  -15.6788 C   0  0  0  0  0  0  0  0  0  0  0  0
   -6.3193    4.9322  -17.0714 C   0  0  0  0  0  0  0  0  0  0  0  0
   -4.0309    7.4484  -17.7578 C   0  0  0  0  0  0  0  0  0  0  0  0
   -2.6441    8.0629  -17.9745 C   0  0  0  0  0  0  0  0  0  0  0  0
  1  2  1  0
  2  3  1  0
  3  4  1  0
  4  5  1  0
  5  6  1  0
  6  7  1  0
  7  8  2  0
  8  9  1  0
  9 10  1  0
 10 11  2  0
 11 12  1  0
 12 13  2  0
 13 14  1  0
 14 15  2  0
 14 16  1  0
 16 17  1  0
 17 18  2  0
 18 19  1  0
 19 20  2  0
 20 21  1  0
 21 22  2  0
 21 23  1  0
 23 24  2  0
 23 25  1  0
 25 26  1  0
 26 27  1  0
 27 28  1  0
 28 29  1  0
 25 30  1  0
 30 31  2  0
 13 32  1  0
 32 33  2  0
  6 34  1  0
 34 35  1  0
 35  3  1  0
 33  7  1  0
 33 10  1  0
 22 17  1  0
 29 27  1  0
 30 20  1  0
M  END
>  <name>  (178) 
P142179

>  <alias>  (178) 
None

>  <smina_score_min>  (178) 
-10.442

>  <exports>  (178) 
['/opt/xchem-fragalysis-2/maxwin/BulkDock/OUTPUTS/openbind_xx01zvns2b_c2_elabs_1LOUTNY.sdf', '/opt/xchem-fragalysis-2/maxwin/BulkDock/OUTPUTS/openbind_xx01zvns2b_c2_elabs_1LSYIIV.sdf', '/opt/xchem-fragalysis-2/maxwin/openbind-hippo/xx01zvns2b/cycle_02/gnina/openbind_xx01zvns2b_c2_elabs_scored_6.2plus_products.sdf']

>  <tags>  (178) 
syndirella_placed,openbind_xx01zvns2b_c2_elabs,openbind_xx01zvns2b_c2_elabs_scored_6.2plus,syndirella_product,openbind_xx01zvns2b_c2_elabs_scored,openbind_xx01zvns2b_c2_elabs_scored_top80percent,BulkDock Fragalysis export,openbind_xx01zvns2b_c2_elabs_scored_top80percent_despaghettified

>  <subsites>  (178) 
1 - Z4590/B/203/1

>  <smiles>  (178) 
CCN1CCC(c2c[nH]c3ccc(C(=O)Nc4ccc5c(c4)C(=O)N(CC4CC4)C5=O)cc23)CC1

>  <HIPPO Pose ID>  (178) 
142179

>  <energy_score>  (178) 
-33.102217

>  <inchikey>  (178) 
KSUZMVBIKVZYCT-UHFFFAOYSA-N

>  <gnina_score_min>  (178) 
6.424

>  <gnina_score>  (178) 
6.316

>  <ref_mols>  (178) 
Z4161a

>  <HIPPO Compound ID>  (178) 
199801

>  <distance_score>  (178) 
0.640842

>  <rmsd(smina/fragmenstein)>  (178) 
0.852

>  <ref_pdb>  (178) 
Z4161a

>  <inspiration_score>  (178) 
None

$$$$
P142180
     RDKit          3D

 35 40  0  0  0  0  0  0  0  0999 V2000
   -0.2074    9.4281  -16.0487 C   0  0  0  0  0  0  0  0  0  0  0  0
   -0.2925    8.0492  -16.6905 C   0  0  0  0  0  0  0  0  0  0  0  0
   -1.6327    7.4388  -16.6065 N   0  0  0  0  0  0  0  0  0  0  0  0
   -1.5461    6.0512  -17.1060 C   0  0  0  0  0  0  0  0  0  0  0  0
   -2.8983    5.3377  -17.1351 C   0  0  0  0  0  0  0  0  0  0  0  0
   -3.8705    6.1627  -17.9654 C   0  0  0  0  0  0  0  0  0  0  0  0
   -5.1862    5.5105  -18.2396 C   0  0  0  0  0  0  0  0  0  0  0  0
   -5.6190    5.2524  -19.5239 C   0  0  0  0  0  0  0  0  0  0  0  0
   -6.8591    4.6988  -19.4620 N   0  0  0  0  0  0  0  0  0  0  0  0
   -7.2710    4.6044  -18.1633 C   0  0  0  0  0  0  0  0  0  0  0  0
   -8.4894    4.1311  -17.6848 C   0  0  0  0  0  0  0  0  0  0  0  0
   -8.6544    4.1125  -16.3145 C   0  0  0  0  0  0  0  0  0  0  0  0
   -7.6220    4.5245  -15.4681 C   0  0  0  0  0  0  0  0  0  0  0  0
   -7.8121    4.1547  -14.0617 C   0  0  0  0  0  0  0  0  0  0  0  0
   -8.1683    3.0652  -13.8880 O   0  0  0  0  0  0  0  0  0  0  0  0
   -7.5539    5.2809  -13.0668 N   0  0  0  0  0  0  0  0  0  0  0  0
   -7.5860    5.2833  -11.6837 C   0  0  0  0  0  0  0  0  0  0  0  0
   -7.3149    6.4404  -10.9550 C   0  0  0  0  0  0  0  0  0  0  0  0
   -7.3815    6.4135   -9.5613 C   0  0  0  0  0  0  0  0  0  0  0  0
   -7.7001    5.2199   -8.9374 C   0  0  0  0  0  0  0  0  0  0  0  0
   -7.9617    4.0689   -9.6658 C   0  0  0  0  0  0  0  0  0  0  0  0
   -7.9233    4.0869  -11.0371 C   0  0  0  0  0  0  0  0  0  0  0  0
   -8.3279    2.9330   -8.7799 C   0  0  0  0  0  0  0  0  0  0  0  0
   -8.1862    3.5271   -7.4310 N   0  0  0  0  0  0  0  0  0  0  0  0
   -9.0706    3.0883   -6.4605 C   0  0  0  0  0  0  0  0  0  0  0  0
   -9.3204    3.8419   -5.3087 C   0  0  0  0  0  0  0  0  0  0  0  0
  -10.3825    3.5269   -4.4841 C   0  0  0  0  0  0  0  0  0  0  0  0
  -11.1987    2.4538   -4.8048 C   0  0  0  0  0  0  0  0  0  0  0  0
  -10.8342    1.5871   -5.8086 C   0  0  0  0  0  0  0  0  0  0  0  0
   -9.7582    1.8834   -6.6153 C   0  0  0  0  0  0  0  0  0  0  0  0
   -7.8756    4.9568   -7.4861 C   0  0  0  0  0  0  0  0  0  0  0  0
   -6.4060    5.0265  -15.9550 C   0  0  0  0  0  0  0  0  0  0  0  0
   -6.2314    5.0759  -17.3552 C   0  0  0  0  0  0  0  0  0  0  0  0
   -4.0062    7.5563  -17.3610 C   0  0  0  0  0  0  0  0  0  0  0  0
   -2.6342    8.2299  -17.3377 C   0  0  0  0  0  0  0  0  0  0  0  0
  1  2  1  0
  2  3  1  0
  3  4  1  0
  4  5  1  0
  5  6  1  0
  6  7  1  0
  7  8  2  0
  8  9  1  0
  9 10  1  0
 10 11  2  0
 11 12  1  0
 12 13  2  0
 13 14  1  0
 14 15  2  0
 14 16  1  0
 16 17  1  0
 17 18  2  0
 18 19  1  0
 19 20  2  0
 20 21  1  0
 21 22  2  0
 21 23  1  0
 23 24  1  0
 24 25  1  0
 25 26  2  0
 26 27  1  0
 27 28  2  0
 28 29  1  0
 29 30  2  0
 24 31  1  0
 13 32  1  0
 32 33  2  0
  6 34  1  0
 34 35  1  0
 35  3  1  0
 33  7  1  0
 33 10  1  0
 22 17  1  0
 30 25  1  0
 31 20  1  0
M  END
>  <name>  (179) 
P142180

>  <alias>  (179) 
None

>  <smina_score_min>  (179) 
-9.177

>  <exports>  (179) 
['/opt/xchem-fragalysis-2/maxwin/BulkDock/OUTPUTS/openbind_xx01zvns2b_c2_elabs_1LOUTNY.sdf', '/opt/xchem-fragalysis-2/maxwin/BulkDock/OUTPUTS/openbind_xx01zvns2b_c2_elabs_1LSYIIV.sdf', '/opt/xchem-fragalysis-2/maxwin/openbind-hippo/xx01zvns2b/cycle_02/gnina/openbind_xx01zvns2b_c2_elabs_scored_6.2plus_products.sdf']

>  <tags>  (179) 
syndirella_placed,openbind_xx01zvns2b_c2_elabs,openbind_xx01zvns2b_c2_elabs_scored_6.2plus,syndirella_product,openbind_xx01zvns2b_c2_elabs_scored,openbind_xx01zvns2b_c2_elabs_scored_top80percent,BulkDock Fragalysis export,openbind_xx01zvns2b_c2_elabs_scored_top80percent_despaghettified

>  <subsites>  (179) 
1 - Z4590/B/203/1

>  <smiles>  (179) 
CCN1CCC(c2c[nH]c3ccc(C(=O)Nc4ccc5c(c4)CN(c4ccccc4)C5)cc23)CC1

>  <HIPPO Pose ID>  (179) 
142180

>  <energy_score>  (179) 
-36.513403

>  <inchikey>  (179) 
LGKABOSBGVUWDH-UHFFFAOYSA-N

>  <gnina_score_min>  (179) 
6.266

>  <gnina_score>  (179) 
6.231

>  <ref_mols>  (179) 
Z4161a

>  <HIPPO Compound ID>  (179) 
199803

>  <distance_score>  (179) 
1.222512

>  <rmsd(smina/fragmenstein)>  (179) 
0.889

>  <ref_pdb>  (179) 
Z4161a

>  <inspiration_score>  (179) 
None

$$$$
P142182
     RDKit          3D

 37 42  0  0  0  0  0  0  0  0999 V2000
   -0.3429    9.3102  -16.2141 C   0  0  0  0  0  0  0  0  0  0  0  0
   -0.3814    7.9851  -16.9668 C   0  0  0  0  0  0  0  0  0  0  0  0
   -1.7074    7.3433  -16.9544 N   0  0  0  0  0  0  0  0  0  0  0  0
   -2.7034    8.1225  -17.7057 C   0  0  0  0  0  0  0  0  0  0  0  0
   -4.0758    7.4465  -17.7037 C   0  0  0  0  0  0  0  0  0  0  0  0
   -3.9760    6.0233  -18.2585 C   0  0  0  0  0  0  0  0  0  0  0  0
   -5.3080    5.3321  -18.3443 C   0  0  0  0  0  0  0  0  0  0  0  0
   -5.9006    4.9251  -19.5197 C   0  0  0  0  0  0  0  0  0  0  0  0
   -7.1310    4.3942  -19.2385 N   0  0  0  0  0  0  0  0  0  0  0  0
   -7.3584    4.4188  -17.8854 C   0  0  0  0  0  0  0  0  0  0  0  0
   -8.4825    4.0065  -17.1543 C   0  0  0  0  0  0  0  0  0  0  0  0
   -8.4857    4.2546  -15.7810 C   0  0  0  0  0  0  0  0  0  0  0  0
   -7.3849    4.8660  -15.1854 C   0  0  0  0  0  0  0  0  0  0  0  0
   -7.4717    5.4126  -13.8219 C   0  0  0  0  0  0  0  0  0  0  0  0
   -7.2716    6.5560  -13.6954 O   0  0  0  0  0  0  0  0  0  0  0  0
   -7.8128    4.3350  -12.7723 N   0  0  0  0  0  0  0  0  0  0  0  0
   -8.0633    4.4489  -11.4109 C   0  0  0  0  0  0  0  0  0  0  0  0
   -7.9583    5.7292  -10.8255 C   0  0  0  0  0  0  0  0  0  0  0  0
   -8.1522    5.9196   -9.4695 C   0  0  0  0  0  0  0  0  0  0  0  0
   -8.4344    4.7971   -8.7360 C   0  0  0  0  0  0  0  0  0  0  0  0
   -8.5451    3.5117   -9.2774 C   0  0  0  0  0  0  0  0  0  0  0  0
   -8.3750    3.3211  -10.6389 C   0  0  0  0  0  0  0  0  0  0  0  0
   -8.8329    2.5396   -8.1787 C   0  0  0  0  0  0  0  0  0  0  0  0
   -8.7365    3.4033   -7.0012 N   0  0  0  0  0  0  0  0  0  0  0  0
   -8.8343    2.9303   -5.6494 C   0  0  2  0  0  0  0  0  0  0  0  0
  -10.0884    3.3768   -4.9049 C   0  0  0  0  0  0  0  0  0  0  0  0
   -9.5567    3.9604   -3.6241 C   0  0  0  0  0  0  0  0  0  0  0  0
  -10.2093    4.4643   -2.7229 O   0  0  0  0  0  0  0  0  0  0  0  0
   -8.2126    3.8805   -3.5910 N   0  0  0  0  0  0  0  0  0  0  0  0
   -7.6925    3.4730   -4.7722 C   0  0  0  0  0  0  0  0  0  0  0  0
   -6.4999    3.5970   -5.0232 O   0  0  0  0  0  0  0  0  0  0  0  0
   -8.6255    4.7336   -7.2985 C   0  0  0  0  0  0  0  0  0  0  0  0
   -8.6535    5.6826   -6.5381 O   0  0  0  0  0  0  0  0  0  0  0  0
   -6.2377    5.2043  -15.9137 C   0  0  0  0  0  0  0  0  0  0  0  0
   -6.2309    5.0014  -17.3006 C   0  0  0  0  0  0  0  0  0  0  0  0
   -2.9243    5.2331  -17.4816 C   0  0  0  0  0  0  0  0  0  0  0  0
   -1.5893    5.9771  -17.4979 C   0  0  0  0  0  0  0  0  0  0  0  0
  1  2  1  0
  2  3  1  0
  3  4  1  0
  4  5  1  0
  5  6  1  0
  6  7  1  0
  7  8  2  0
  8  9  1  0
  9 10  1  0
 10 11  2  0
 11 12  1  0
 12 13  2  0
 13 14  1  0
 14 15  2  0
 14 16  1  0
 16 17  1  0
 17 18  2  0
 18 19  1  0
 19 20  2  0
 20 21  1  0
 21 22  2  0
 21 23  1  0
 23 24  1  0
 25 24  1  6
 25 26  1  0
 26 27  1  0
 27 28  2  0
 27 29  1  0
 29 30  1  0
 30 31  2  0
 24 32  1  0
 32 33  2  0
 13 34  1  0
 34 35  2  0
  6 36  1  0
 36 37  1  0
 37  3  1  0
 35  7  1  0
 35 10  1  0
 22 17  1  0
 30 25  1  0
 32 20  1  0
M  END
>  <name>  (180) 
P142182

>  <alias>  (180) 
None

>  <smina_score_min>  (180) 
-9.105

>  <exports>  (180) 
['/opt/xchem-fragalysis-2/maxwin/BulkDock/OUTPUTS/openbind_xx01zvns2b_c2_elabs_1LOUTNY.sdf', '/opt/xchem-fragalysis-2/maxwin/BulkDock/OUTPUTS/openbind_xx01zvns2b_c2_elabs_1LSYIIV.sdf', '/opt/xchem-fragalysis-2/maxwin/openbind-hippo/xx01zvns2b/cycle_02/gnina/openbind_xx01zvns2b_c2_elabs_scored_6.2plus_products.sdf']

>  <tags>  (180) 
syndirella_placed,openbind_xx01zvns2b_c2_elabs,openbind_xx01zvns2b_c2_elabs_scored_6.2plus,syndirella_product,openbind_xx01zvns2b_c2_elabs_scored,openbind_xx01zvns2b_c2_elabs_scored_top80percent,BulkDock Fragalysis export,openbind_xx01zvns2b_c2_elabs_scored_top80percent_despaghettified

>  <subsites>  (180) 
1 - Z4590/B/203/1

>  <smiles>  (180) 
CCN1CCC(c2c[nH]c3ccc(C(=O)Nc4ccc5c(c4)CN([C@@H]4CC(=O)NC4=O)C5=O)cc23)CC1

>  <HIPPO Pose ID>  (180) 
142182

>  <energy_score>  (180) 
-50.595071

>  <inchikey>  (180) 
BUNLDZWOBNZACG-XMMPIXPASA-N

>  <gnina_score_min>  (180) 
6.383

>  <gnina_score>  (180) 
6.408

>  <ref_mols>  (180) 
Z4161a

>  <HIPPO Compound ID>  (180) 
199810

>  <distance_score>  (180) 
0.70712

>  <rmsd(smina/fragmenstein)>  (180) 
0.805

>  <ref_pdb>  (180) 
Z4161a

>  <inspiration_score>  (180) 
None

$$$$
P142185
     RDKit          3D

 38 43  0  0  0  0  0  0  0  0999 V2000
   -0.3249    9.2990  -16.2149 C   0  0  0  0  0  0  0  0  0  0  0  0
   -0.3548    7.9782  -16.9756 C   0  0  0  0  0  0  0  0  0  0  0  0
   -1.6803    7.3357  -16.9800 N   0  0  0  0  0  0  0  0  0  0  0  0
   -1.5570    5.9724  -17.5297 C   0  0  0  0  0  0  0  0  0  0  0  0
   -2.8917    5.2279  -17.5263 C   0  0  0  0  0  0  0  0  0  0  0  0
   -3.9385    6.0211  -18.3075 C   0  0  0  0  0  0  0  0  0  0  0  0
   -5.2711    5.3325  -18.3985 C   0  0  0  0  0  0  0  0  0  0  0  0
   -5.8668    4.9298  -19.5732 C   0  0  0  0  0  0  0  0  0  0  0  0
   -7.0987    4.4019  -19.2897 N   0  0  0  0  0  0  0  0  0  0  0  0
   -7.3244    4.4263  -17.9369 C   0  0  0  0  0  0  0  0  0  0  0  0
   -8.4486    4.0186  -17.2036 C   0  0  0  0  0  0  0  0  0  0  0  0
   -8.4432    4.2609  -15.8296 C   0  0  0  0  0  0  0  0  0  0  0  0
   -7.3336    4.8614  -15.2375 C   0  0  0  0  0  0  0  0  0  0  0  0
   -7.3940    5.3812  -13.8632 C   0  0  0  0  0  0  0  0  0  0  0  0
   -7.0970    6.4984  -13.7003 O   0  0  0  0  0  0  0  0  0  0  0  0
   -7.8397    4.3079  -12.8507 N   0  0  0  0  0  0  0  0  0  0  0  0
   -8.0954    4.4030  -11.4921 C   0  0  0  0  0  0  0  0  0  0  0  0
   -8.0090    5.6796  -10.8970 C   0  0  0  0  0  0  0  0  0  0  0  0
   -8.2369    5.8564   -9.5471 C   0  0  0  0  0  0  0  0  0  0  0  0
   -8.5405    4.7252   -8.8348 C   0  0  0  0  0  0  0  0  0  0  0  0
   -8.6231    3.4430   -9.3824 C   0  0  0  0  0  0  0  0  0  0  0  0
   -8.4130    3.2649  -10.7380 C   0  0  0  0  0  0  0  0  0  0  0  0
   -8.9312    2.4630   -8.2969 C   0  0  0  0  0  0  0  0  0  0  0  0
   -8.9452    3.3318   -7.1184 N   0  0  0  0  0  0  0  0  0  0  0  0
   -8.8485    2.8212   -5.7703 C   0  0  1  0  0  0  0  0  0  0  0  0
   -7.5973    3.3595   -5.0550 C   0  0  0  0  0  0  0  0  0  0  0  0
   -7.8177    4.4643   -4.0416 C   0  0  2  0  0  0  0  0  0  0  0  0
   -6.6952    4.5461   -3.2653 F   0  0  0  0  0  0  0  0  0  0  0  0
   -8.9984    4.1362   -3.1598 C   0  0  0  0  0  0  0  0  0  0  0  0
  -10.1755    3.8527   -3.9313 N   0  0  0  0  0  0  0  0  0  0  0  0
  -10.1769    3.0502   -5.0402 C   0  0  0  0  0  0  0  0  0  0  0  0
  -11.2539    2.6124   -5.4413 O   0  0  0  0  0  0  0  0  0  0  0  0
   -8.7918    4.6584   -7.4107 C   0  0  0  0  0  0  0  0  0  0  0  0
   -8.7959    5.6205   -6.6669 O   0  0  0  0  0  0  0  0  0  0  0  0
   -6.1898    5.1977  -15.9693 C   0  0  0  0  0  0  0  0  0  0  0  0
   -6.1923    5.0015  -17.3552 C   0  0  0  0  0  0  0  0  0  0  0  0
   -4.0413    7.4434  -17.7496 C   0  0  0  0  0  0  0  0  0  0  0  0
   -2.6689    8.1183  -17.7373 C   0  0  0  0  0  0  0  0  0  0  0  0
  1  2  1  0
  2  3  1  0
  3  4  1  0
  4  5  1  0
  5  6  1  0
  6  7  1  0
  7  8  2  0
  8  9  1  0
  9 10  1  0
 10 11  2  0
 11 12  1  0
 12 13  2  0
 13 14  1  0
 14 15  2  0
 14 16  1  0
 16 17  1  0
 17 18  2  0
 18 19  1  0
 19 20  2  0
 20 21  1  0
 21 22  2  0
 21 23  1  0
 23 24  1  0
 25 24  1  6
 25 26  1  0
 26 27  1  0
 27 28  1  1
 27 29  1  0
 29 30  1  0
 30 31  1  0
 31 32  2  0
 24 33  1  0
 33 34  2  0
 13 35  1  0
 35 36  2  0
  6 37  1  0
 37 38  1  0
 38  3  1  0
 36  7  1  0
 36 10  1  0
 22 17  1  0
 31 25  1  0
 33 20  1  0
M  END
>  <name>  (181) 
P142185

>  <alias>  (181) 
None

>  <smina_score_min>  (181) 
-9.172

>  <exports>  (181) 
['/opt/xchem-fragalysis-2/maxwin/BulkDock/OUTPUTS/openbind_xx01zvns2b_c2_elabs_1LOUTNY.sdf', '/opt/xchem-fragalysis-2/maxwin/BulkDock/OUTPUTS/openbind_xx01zvns2b_c2_elabs_1LSYIIV.sdf', '/opt/xchem-fragalysis-2/maxwin/openbind-hippo/xx01zvns2b/cycle_02/gnina/openbind_xx01zvns2b_c2_elabs_scored_6.2plus_products.sdf']

>  <tags>  (181) 
syndirella_placed,openbind_xx01zvns2b_c2_elabs,openbind_xx01zvns2b_c2_elabs_scored_6.2plus,syndirella_product,openbind_xx01zvns2b_c2_elabs_scored,openbind_xx01zvns2b_c2_elabs_scored_top80percent,BulkDock Fragalysis export,openbind_xx01zvns2b_c2_elabs_scored_top80percent_despaghettified

>  <subsites>  (181) 
1 - Z4590/B/203/1

>  <smiles>  (181) 
CCN1CCC(c2c[nH]c3ccc(C(=O)Nc4ccc5c(c4)CN([C@H]4C[C@H](F)CNC4=O)C5=O)cc23)CC1

>  <HIPPO Pose ID>  (181) 
142185

>  <energy_score>  (181) 
-64.440197

>  <inchikey>  (181) 
PPPLPOHBHBVISX-FNZWTVRRSA-N

>  <gnina_score_min>  (181) 
6.438

>  <gnina_score>  (181) 
6.37

>  <ref_mols>  (181) 
Z4161a

>  <HIPPO Compound ID>  (181) 
199811

>  <distance_score>  (181) 
0.694103

>  <rmsd(smina/fragmenstein)>  (181) 
1.033

>  <ref_pdb>  (181) 
Z4161a

>  <inspiration_score>  (181) 
None

$$$$
P142188
     RDKit          3D

 38 43  0  0  0  0  0  0  0  0999 V2000
   -0.3204    9.3190  -16.2134 C   0  0  0  0  0  0  0  0  0  0  0  0
   -0.3453    7.9902  -16.9600 C   0  0  0  0  0  0  0  0  0  0  0  0
   -1.6728    7.3520  -16.9737 N   0  0  0  0  0  0  0  0  0  0  0  0
   -1.5466    5.9823  -17.5063 C   0  0  0  0  0  0  0  0  0  0  0  0
   -2.8835    5.2422  -17.5116 C   0  0  0  0  0  0  0  0  0  0  0  0
   -3.9174    6.0304  -18.3147 C   0  0  0  0  0  0  0  0  0  0  0  0
   -5.2497    5.3433  -18.4148 C   0  0  0  0  0  0  0  0  0  0  0  0
   -5.8311    4.9290  -19.5928 C   0  0  0  0  0  0  0  0  0  0  0  0
   -7.0637    4.3994  -19.3180 N   0  0  0  0  0  0  0  0  0  0  0  0
   -7.3055    4.4370  -17.9685 C   0  0  0  0  0  0  0  0  0  0  0  0
   -8.4367    4.0302  -17.2467 C   0  0  0  0  0  0  0  0  0  0  0  0
   -8.4538    4.2976  -15.8788 C   0  0  0  0  0  0  0  0  0  0  0  0
   -7.3591    4.9221  -15.2827 C   0  0  0  0  0  0  0  0  0  0  0  0
   -7.4509    5.4544  -13.9154 C   0  0  0  0  0  0  0  0  0  0  0  0
   -7.2144    6.5837  -13.7471 O   0  0  0  0  0  0  0  0  0  0  0  0
   -7.8326    4.3553  -12.9107 N   0  0  0  0  0  0  0  0  0  0  0  0
   -8.0871    4.4278  -11.5529 C   0  0  0  0  0  0  0  0  0  0  0  0
   -8.0620    5.6898  -10.9216 C   0  0  0  0  0  0  0  0  0  0  0  0
   -8.2574    5.8108   -9.5561 C   0  0  0  0  0  0  0  0  0  0  0  0
   -8.4588    4.6412   -8.8689 C   0  0  0  0  0  0  0  0  0  0  0  0
   -8.4870    3.3793   -9.4687 C   0  0  0  0  0  0  0  0  0  0  0  0
   -8.3227    3.2544  -10.8321 C   0  0  0  0  0  0  0  0  0  0  0  0
   -8.6763    2.3356   -8.4255 C   0  0  0  0  0  0  0  0  0  0  0  0
   -8.5697    3.1341   -7.2093 N   0  0  0  0  0  0  0  0  0  0  0  0
   -8.6866    2.5438   -5.9056 C   0  0  2  0  0  0  0  0  0  0  0  0
  -10.1342    2.4478   -5.4624 C   0  0  0  0  0  0  0  0  0  0  0  0
  -10.5476    3.6436   -4.6521 C   0  0  0  0  0  0  0  0  0  0  0  0
   -9.5897    4.0461   -3.5655 C   0  0  0  0  0  0  0  0  0  0  0  0
   -9.9191    4.7521   -2.6132 O   0  0  0  0  0  0  0  0  0  0  0  0
   -8.2980    3.6617   -3.7056 N   0  0  0  0  0  0  0  0  0  0  0  0
   -7.7465    3.2731   -4.8932 C   0  0  0  0  0  0  0  0  0  0  0  0
   -6.5572    3.5548   -5.0758 O   0  0  0  0  0  0  0  0  0  0  0  0
   -8.6185    4.4839   -7.4342 C   0  0  0  0  0  0  0  0  0  0  0  0
   -8.7419    5.3924   -6.6352 O   0  0  0  0  0  0  0  0  0  0  0  0
   -6.2030    5.2481  -15.9970 C   0  0  0  0  0  0  0  0  0  0  0  0
   -6.1847    5.0270  -17.3793 C   0  0  0  0  0  0  0  0  0  0  0  0
   -4.0232    7.4589  -17.7737 C   0  0  0  0  0  0  0  0  0  0  0  0
   -2.6491    8.1295  -17.7518 C   0  0  0  0  0  0  0  0  0  0  0  0
  1  2  1  0
  2  3  1  0
  3  4  1  0
  4  5  1  0
  5  6  1  0
  6  7  1  0
  7  8  2  0
  8  9  1  0
  9 10  1  0
 10 11  2  0
 11 12  1  0
 12 13  2  0
 13 14  1  0
 14 15  2  0
 14 16  1  0
 16 17  1  0
 17 18  2  0
 18 19  1  0
 19 20  2  0
 20 21  1  0
 21 22  2  0
 21 23  1  0
 23 24  1  0
 25 24  1  6
 25 26  1  0
 26 27  1  0
 27 28  1  0
 28 29  2  0
 28 30  1  0
 30 31  1  0
 31 32  2  0
 24 33  1  0
 33 34  2  0
 13 35  1  0
 35 36  2  0
  6 37  1  0
 37 38  1  0
 38  3  1  0
 36  7  1  0
 36 10  1  0
 22 17  1  0
 31 25  1  0
 33 20  1  0
M  END
>  <name>  (182) 
P142188

>  <alias>  (182) 
None

>  <smina_score_min>  (182) 
-9.078

>  <exports>  (182) 
['/opt/xchem-fragalysis-2/maxwin/BulkDock/OUTPUTS/openbind_xx01zvns2b_c2_elabs_1LOUTNY.sdf', '/opt/xchem-fragalysis-2/maxwin/BulkDock/OUTPUTS/openbind_xx01zvns2b_c2_elabs_1LSYIIV.sdf', '/opt/xchem-fragalysis-2/maxwin/openbind-hippo/xx01zvns2b/cycle_02/gnina/openbind_xx01zvns2b_c2_elabs_scored_6.2plus_products.sdf']

>  <tags>  (182) 
syndirella_placed,openbind_xx01zvns2b_c2_elabs,openbind_xx01zvns2b_c2_elabs_scored_6.2plus,syndirella_product,openbind_xx01zvns2b_c2_elabs_scored,openbind_xx01zvns2b_c2_elabs_scored_top80percent,BulkDock Fragalysis export,openbind_xx01zvns2b_c2_elabs_scored_top80percent_despaghettified

>  <subsites>  (182) 
1 - Z4590/B/203/1

>  <smiles>  (182) 
CCN1CCC(c2c[nH]c3ccc(C(=O)Nc4ccc5c(c4)CN([C@@H]4CCC(=O)NC4=O)C5=O)cc23)CC1

>  <HIPPO Pose ID>  (182) 
142188

>  <energy_score>  (182) 
-61.922483

>  <inchikey>  (182) 
RWYYQWAFIGUOFM-RUZDIDTESA-N

>  <gnina_score_min>  (182) 
6.431

>  <gnina_score>  (182) 
6.404

>  <ref_mols>  (182) 
Z4161a

>  <HIPPO Compound ID>  (182) 
199812

>  <distance_score>  (182) 
0.703752

>  <rmsd(smina/fragmenstein)>  (182) 
1.263

>  <ref_pdb>  (182) 
Z4161a

>  <inspiration_score>  (182) 
None

$$$$
P142191
     RDKit          3D

 38 43  0  0  0  0  0  0  0  0999 V2000
   -0.3396    9.3111  -16.2043 C   0  0  0  0  0  0  0  0  0  0  0  0
   -0.3724    7.9850  -16.9553 C   0  0  0  0  0  0  0  0  0  0  0  0
   -1.6978    7.3417  -16.9505 N   0  0  0  0  0  0  0  0  0  0  0  0
   -1.5745    5.9764  -17.4959 C   0  0  0  0  0  0  0  0  0  0  0  0
   -2.9087    5.2308  -17.4936 C   0  0  0  0  0  0  0  0  0  0  0  0
   -3.9523    6.0226  -18.2793 C   0  0  0  0  0  0  0  0  0  0  0  0
   -5.2815    5.3301  -18.3861 C   0  0  0  0  0  0  0  0  0  0  0  0
   -5.8584    4.9299  -19.5713 C   0  0  0  0  0  0  0  0  0  0  0  0
   -7.0913    4.3952  -19.3083 N   0  0  0  0  0  0  0  0  0  0  0  0
   -7.3378    4.4149  -17.9594 C   0  0  0  0  0  0  0  0  0  0  0  0
   -8.4727    4.0008  -17.2478 C   0  0  0  0  0  0  0  0  0  0  0  0
   -8.4947    4.2423  -15.8744 C   0  0  0  0  0  0  0  0  0  0  0  0
   -7.3999    4.8467  -15.2595 C   0  0  0  0  0  0  0  0  0  0  0  0
   -7.4941    5.3724  -13.8874 C   0  0  0  0  0  0  0  0  0  0  0  0
   -7.1734    6.4826  -13.7204 O   0  0  0  0  0  0  0  0  0  0  0  0
   -8.0420    4.3295  -12.8923 N   0  0  0  0  0  0  0  0  0  0  0  0
   -8.2150    4.3997  -11.5188 C   0  0  0  0  0  0  0  0  0  0  0  0
   -8.0253    5.6584  -10.8994 C   0  0  0  0  0  0  0  0  0  0  0  0
   -8.1536    5.8187   -9.5319 C   0  0  0  0  0  0  0  0  0  0  0  0
   -8.4674    4.6871   -8.8280 C   0  0  0  0  0  0  0  0  0  0  0  0
   -8.6677    3.4460   -9.4116 C   0  0  0  0  0  0  0  0  0  0  0  0
   -8.5537    3.2652  -10.7748 C   0  0  0  0  0  0  0  0  0  0  0  0
   -8.9593    2.5141   -8.3224 C   0  0  0  0  0  0  0  0  0  0  0  0
   -9.2815    1.3557   -8.4728 O   0  0  0  0  0  0  0  0  0  0  0  0
   -8.7969    3.2320   -7.1675 N   0  0  0  0  0  0  0  0  0  0  0  0
   -8.8647    2.6823   -5.8450 C   0  0  1  0  0  0  0  0  0  0  0  0
   -7.8120    3.2587   -4.8902 C   0  0  0  0  0  0  0  0  0  0  0  0
   -8.6118    3.8115   -3.7542 C   0  0  0  0  0  0  0  0  0  0  0  0
   -8.1446    4.2804   -2.7269 O   0  0  0  0  0  0  0  0  0  0  0  0
   -9.9276    3.6987   -4.0325 N   0  0  0  0  0  0  0  0  0  0  0  0
  -10.1769    3.0596   -5.2037 C   0  0  0  0  0  0  0  0  0  0  0  0
  -11.2932    2.8995   -5.6640 O   0  0  0  0  0  0  0  0  0  0  0  0
   -8.6278    4.5567   -7.4018 C   0  0  0  0  0  0  0  0  0  0  0  0
   -8.6050    5.4896   -6.6201 O   0  0  0  0  0  0  0  0  0  0  0  0
   -6.2417    5.1853  -15.9703 C   0  0  0  0  0  0  0  0  0  0  0  0
   -6.2178    4.9928  -17.3573 C   0  0  0  0  0  0  0  0  0  0  0  0
   -4.0613    7.4425  -17.7177 C   0  0  0  0  0  0  0  0  0  0  0  0
   -2.6906    8.1215  -17.7056 C   0  0  0  0  0  0  0  0  0  0  0  0
  1  2  1  0
  2  3  1  0
  3  4  1  0
  4  5  1  0
  5  6  1  0
  6  7  1  0
  7  8  2  0
  8  9  1  0
  9 10  1  0
 10 11  2  0
 11 12  1  0
 12 13  2  0
 13 14  1  0
 14 15  2  0
 14 16  1  0
 16 17  1  0
 17 18  2  0
 18 19  1  0
 19 20  2  0
 20 21  1  0
 21 22  2  0
 21 23  1  0
 23 24  2  0
 23 25  1  0
 26 25  1  6
 26 27  1  0
 27 28  1  0
 28 29  2  0
 28 30  1  0
 30 31  1  0
 31 32  2  0
 25 33  1  0
 33 34  2  0
 13 35  1  0
 35 36  2  0
  6 37  1  0
 37 38  1  0
 38  3  1  0
 36  7  1  0
 36 10  1  0
 22 17  1  0
 31 26  1  0
 33 20  1  0
M  END
>  <name>  (183) 
P142191

>  <alias>  (183) 
None

>  <smina_score_min>  (183) 
-9.713

>  <exports>  (183) 
['/opt/xchem-fragalysis-2/maxwin/BulkDock/OUTPUTS/openbind_xx01zvns2b_c2_elabs_1LOUTNY.sdf', '/opt/xchem-fragalysis-2/maxwin/BulkDock/OUTPUTS/openbind_xx01zvns2b_c2_elabs_1LSYIIV.sdf', '/opt/xchem-fragalysis-2/maxwin/openbind-hippo/xx01zvns2b/cycle_02/gnina/openbind_xx01zvns2b_c2_elabs_scored_6.2plus_products.sdf']

>  <tags>  (183) 
syndirella_placed,openbind_xx01zvns2b_c2_elabs,openbind_xx01zvns2b_c2_elabs_scored_6.2plus,syndirella_product,openbind_xx01zvns2b_c2_elabs_scored,openbind_xx01zvns2b_c2_elabs_scored_top80percent,BulkDock Fragalysis export,openbind_xx01zvns2b_c2_elabs_scored_top80percent_despaghettified

>  <subsites>  (183) 
1 - Z4590/B/203/1

>  <smiles>  (183) 
CCN1CCC(c2c[nH]c3ccc(C(=O)Nc4ccc5c(c4)C(=O)N([C@H]4CC(=O)NC4=O)C5=O)cc23)CC1

>  <HIPPO Pose ID>  (183) 
142191

>  <energy_score>  (183) 
-67.788798

>  <inchikey>  (183) 
XYEYPJKWOBBHIO-QHCPKHFHSA-N

>  <gnina_score_min>  (183) 
6.403

>  <gnina_score>  (183) 
6.327

>  <ref_mols>  (183) 
Z4161a

>  <HIPPO Compound ID>  (183) 
199813

>  <distance_score>  (183) 
0.677058

>  <rmsd(smina/fragmenstein)>  (183) 
0.808

>  <ref_pdb>  (183) 
Z4161a

>  <inspiration_score>  (183) 
None

$$$$
P142192
     RDKit          3D

 38 43  0  0  0  0  0  0  0  0999 V2000
   -0.3460    9.3446  -16.2398 C   0  0  0  0  0  0  0  0  0  0  0  0
   -0.3836    8.0067  -16.9693 C   0  0  0  0  0  0  0  0  0  0  0  0
   -1.7130    7.3728  -16.9567 N   0  0  0  0  0  0  0  0  0  0  0  0
   -2.6962    8.1365  -17.7397 C   0  0  0  0  0  0  0  0  0  0  0  0
   -4.0733    7.4700  -17.7313 C   0  0  0  0  0  0  0  0  0  0  0  0
   -3.9788    6.0303  -18.2425 C   0  0  0  0  0  0  0  0  0  0  0  0
   -5.3127    5.3405  -18.3124 C   0  0  0  0  0  0  0  0  0  0  0  0
   -5.9026    4.8992  -19.4776 C   0  0  0  0  0  0  0  0  0  0  0  0
   -7.1289    4.3670  -19.1827 N   0  0  0  0  0  0  0  0  0  0  0  0
   -7.3571    4.4293  -17.8303 C   0  0  0  0  0  0  0  0  0  0  0  0
   -8.4771    4.0252  -17.0896 C   0  0  0  0  0  0  0  0  0  0  0  0
   -8.4990    4.3438  -15.7312 C   0  0  0  0  0  0  0  0  0  0  0  0
   -7.4220    5.0176  -15.1579 C   0  0  0  0  0  0  0  0  0  0  0  0
   -7.5767    5.6783  -13.8473 C   0  0  0  0  0  0  0  0  0  0  0  0
   -7.4386    6.8344  -13.7999 O   0  0  0  0  0  0  0  0  0  0  0  0
   -7.8858    4.6664  -12.7357 N   0  0  0  0  0  0  0  0  0  0  0  0
   -8.1738    4.8623  -11.3948 C   0  0  0  0  0  0  0  0  0  0  0  0
   -8.4067    6.1678  -10.9058 C   0  0  0  0  0  0  0  0  0  0  0  0
   -8.5321    6.4299   -9.5388 C   0  0  0  0  0  0  0  0  0  0  0  0
   -8.3713    5.3661   -8.6965 C   0  0  0  0  0  0  0  0  0  0  0  0
   -8.1167    4.1111   -9.1909 C   0  0  0  0  0  0  0  0  0  0  0  0
   -8.0826    3.7856  -10.5272 C   0  0  0  0  0  0  0  0  0  0  0  0
   -7.5649    3.4426   -7.9816 C   0  0  2  0  0  0  0  0  0  0  0  0
   -8.6845    3.0128   -7.0343 C   0  0  0  0  0  0  0  0  0  0  0  0
   -9.0206    4.3659   -6.4499 C   0  0  0  0  0  0  0  0  0  0  0  0
   -8.0406    5.2274   -7.2420 C   0  0  1  0  0  0  0  0  0  0  0  0
   -6.7083    4.5145   -7.1995 N   0  0  0  0  0  0  0  0  0  0  0  0
   -5.4206    4.8067   -7.9097 C   0  0  0  0  0  0  0  0  0  0  0  0
   -5.1694    5.6110   -8.7257 O   0  0  0  0  0  0  0  0  0  0  0  0
   -4.4566    3.9972   -7.3682 O   0  0  0  0  0  0  0  0  0  0  0  0
   -3.0815    4.1139   -7.8351 C   0  0  0  0  0  0  0  0  0  0  0  0
   -2.9619    3.7107   -9.3107 C   0  0  0  0  0  0  0  0  0  0  0  0
   -2.5051    5.5124   -7.5683 C   0  0  0  0  0  0  0  0  0  0  0  0
   -2.2694    3.1127   -6.9984 C   0  0  0  0  0  0  0  0  0  0  0  0
   -6.2628    5.3167  -15.8831 C   0  0  0  0  0  0  0  0  0  0  0  0
   -6.2402    5.0469  -17.2607 C   0  0  0  0  0  0  0  0  0  0  0  0
   -2.9361    5.2565  -17.4368 C   0  0  0  0  0  0  0  0  0  0  0  0
   -1.5971    5.9921  -17.4614 C   0  0  0  0  0  0  0  0  0  0  0  0
  1  2  1  0
  2  3  1  0
  3  4  1  0
  4  5  1  0
  5  6  1  0
  6  7  1  0
  7  8  2  0
  8  9  1  0
  9 10  1  0
 10 11  2  0
 11 12  1  0
 12 13  2  0
 13 14  1  0
 14 15  2  0
 14 16  1  0
 16 17  1  0
 17 18  2  0
 18 19  1  0
 19 20  2  0
 20 21  1  0
 21 22  2  0
 21 23  1  0
 23 24  1  1
 24 25  1  0
 26 25  1  1
 26 27  1  0
 27 28  1  0
 28 29  2  0
 28 30  1  0
 30 31  1  0
 31 32  1  0
 31 33  1  0
 31 34  1  0
 13 35  1  0
 35 36  2  0
  6 37  1  0
 37 38  1  0
 38  3  1  0
 36  7  1  0
 36 10  1  0
 22 17  1  0
 27 23  1  0
 26 20  1  0
M  END
>  <name>  (184) 
P142192

>  <alias>  (184) 
None

>  <smina_score_min>  (184) 
-8.055

>  <exports>  (184) 
['/opt/xchem-fragalysis-2/maxwin/BulkDock/OUTPUTS/openbind_xx01zvns2b_c2_elabs_1LOUTNY.sdf', '/opt/xchem-fragalysis-2/maxwin/BulkDock/OUTPUTS/openbind_xx01zvns2b_c2_elabs_1LSYIIV.sdf', '/opt/xchem-fragalysis-2/maxwin/openbind-hippo/xx01zvns2b/cycle_02/gnina/openbind_xx01zvns2b_c2_elabs_scored_6.2plus_products.sdf']

>  <tags>  (184) 
syndirella_placed,openbind_xx01zvns2b_c2_elabs,openbind_xx01zvns2b_c2_elabs_scored_6.2plus,syndirella_product,openbind_xx01zvns2b_c2_elabs_scored,openbind_xx01zvns2b_c2_elabs_scored_top80percent,BulkDock Fragalysis export,openbind_xx01zvns2b_c2_elabs_scored_top80percent_despaghettified

>  <subsites>  (184) 
1 - Z4590/B/203/1

>  <smiles>  (184) 
CCN1CCC(c2c[nH]c3ccc(C(=O)Nc4ccc5c(c4)[C@@H]4CC[C@H]5N4C(=O)OC(C)(C)C)cc23)CC1

>  <HIPPO Pose ID>  (184) 
142192

>  <energy_score>  (184) 
-6.443168

>  <inchikey>  (184) 
WTMCSQUHCWMYCV-IZLXSDGUSA-N

>  <gnina_score_min>  (184) 
6.516

>  <gnina_score>  (184) 
6.683

>  <ref_mols>  (184) 
Z4161a

>  <HIPPO Compound ID>  (184) 
199814

>  <distance_score>  (184) 
1.151284

>  <rmsd(smina/fragmenstein)>  (184) 
1.024

>  <ref_pdb>  (184) 
Z4161a

>  <inspiration_score>  (184) 
None

$$$$
P142194
     RDKit          3D

 38 43  0  0  0  0  0  0  0  0999 V2000
   -0.3583    9.3161  -16.2006 C   0  0  0  0  0  0  0  0  0  0  0  0
   -0.3973    7.9884  -16.9483 C   0  0  0  0  0  0  0  0  0  0  0  0
   -1.7219    7.3430  -16.9287 N   0  0  0  0  0  0  0  0  0  0  0  0
   -1.6012    5.9777  -17.4750 C   0  0  0  0  0  0  0  0  0  0  0  0
   -2.9342    5.2297  -17.4653 C   0  0  0  0  0  0  0  0  0  0  0  0
   -3.9831    6.0209  -18.2440 C   0  0  0  0  0  0  0  0  0  0  0  0
   -5.3102    5.3244  -18.3534 C   0  0  0  0  0  0  0  0  0  0  0  0
   -5.8821    4.9285  -19.5428 C   0  0  0  0  0  0  0  0  0  0  0  0
   -7.1139    4.3887  -19.2873 N   0  0  0  0  0  0  0  0  0  0  0  0
   -7.3644    4.3988  -17.9389 C   0  0  0  0  0  0  0  0  0  0  0  0
   -8.5009    3.9763  -17.2343 C   0  0  0  0  0  0  0  0  0  0  0  0
   -8.5307    4.2072  -15.8593 C   0  0  0  0  0  0  0  0  0  0  0  0
   -7.4415    4.8101  -15.2356 C   0  0  0  0  0  0  0  0  0  0  0  0
   -7.5579    5.3506  -13.8724 C   0  0  0  0  0  0  0  0  0  0  0  0
   -7.3218    6.4874  -13.7414 O   0  0  0  0  0  0  0  0  0  0  0  0
   -8.0255    4.3001  -12.8417 N   0  0  0  0  0  0  0  0  0  0  0  0
   -8.2026    4.4009  -11.4691 C   0  0  0  0  0  0  0  0  0  0  0  0
   -7.9888    5.6710  -10.8828 C   0  0  0  0  0  0  0  0  0  0  0  0
   -8.1204    5.8729   -9.5226 C   0  0  0  0  0  0  0  0  0  0  0  0
   -8.4623    4.7701   -8.7868 C   0  0  0  0  0  0  0  0  0  0  0  0
   -8.6819    3.5163   -9.3303 C   0  0  0  0  0  0  0  0  0  0  0  0
   -8.5629    3.2942  -10.6902 C   0  0  0  0  0  0  0  0  0  0  0  0
   -8.9735    2.6248   -8.2048 C   0  0  0  0  0  0  0  0  0  0  0  0
   -9.2344    1.4470   -8.3262 O   0  0  0  0  0  0  0  0  0  0  0  0
   -8.8480    3.3924   -7.0701 N   0  0  0  0  0  0  0  0  0  0  0  0
   -8.8022    2.8680   -5.7250 C   0  0  1  0  0  0  0  0  0  0  0  0
   -7.5768    3.3970   -4.9434 C   0  0  0  0  0  0  0  0  0  0  0  0
   -7.7955    4.4173   -3.8268 C   0  0  0  0  0  0  0  0  0  0  0  0
   -9.2113    4.9168   -3.7182 C   0  0  0  0  0  0  0  0  0  0  0  0
  -10.1411    3.8425   -3.8881 N   0  0  0  0  0  0  0  0  0  0  0  0
  -10.1390    3.0779   -5.0256 C   0  0  0  0  0  0  0  0  0  0  0  0
  -11.2122    2.6485   -5.4379 O   0  0  0  0  0  0  0  0  0  0  0  0
   -8.6023    4.6937   -7.3555 C   0  0  0  0  0  0  0  0  0  0  0  0
   -8.4494    5.6543   -6.6235 O   0  0  0  0  0  0  0  0  0  0  0  0
   -6.2805    5.1598  -15.9395 C   0  0  0  0  0  0  0  0  0  0  0  0
   -6.2483    4.9766  -17.3286 C   0  0  0  0  0  0  0  0  0  0  0  0
   -4.0933    7.4376  -17.6759 C   0  0  0  0  0  0  0  0  0  0  0  0
   -2.7243    8.1212  -17.6728 C   0  0  0  0  0  0  0  0  0  0  0  0
  1  2  1  0
  2  3  1  0
  3  4  1  0
  4  5  1  0
  5  6  1  0
  6  7  1  0
  7  8  2  0
  8  9  1  0
  9 10  1  0
 10 11  2  0
 11 12  1  0
 12 13  2  0
 13 14  1  0
 14 15  2  0
 14 16  1  0
 16 17  1  0
 17 18  2  0
 18 19  1  0
 19 20  2  0
 20 21  1  0
 21 22  2  0
 21 23  1  0
 23 24  2  0
 23 25  1  0
 26 25  1  6
 26 27  1  0
 27 28  1  0
 28 29  1  0
 29 30  1  0
 30 31  1  0
 31 32  2  0
 25 33  1  0
 33 34  2  0
 13 35  1  0
 35 36  2  0
  6 37  1  0
 37 38  1  0
 38  3  1  0
 36  7  1  0
 36 10  1  0
 22 17  1  0
 31 26  1  0
 33 20  1  0
M  END
>  <name>  (185) 
P142194

>  <alias>  (185) 
None

>  <smina_score_min>  (185) 
-9.75

>  <exports>  (185) 
['/opt/xchem-fragalysis-2/maxwin/BulkDock/OUTPUTS/openbind_xx01zvns2b_c2_elabs_1LOUTNY.sdf', '/opt/xchem-fragalysis-2/maxwin/BulkDock/OUTPUTS/openbind_xx01zvns2b_c2_elabs_1LSYIIV.sdf', '/opt/xchem-fragalysis-2/maxwin/openbind-hippo/xx01zvns2b/cycle_02/gnina/openbind_xx01zvns2b_c2_elabs_scored_6.2plus_products.sdf']

>  <tags>  (185) 
syndirella_placed,openbind_xx01zvns2b_c2_elabs,openbind_xx01zvns2b_c2_elabs_scored_6.2plus,syndirella_product,openbind_xx01zvns2b_c2_elabs_scored,openbind_xx01zvns2b_c2_elabs_scored_top80percent,BulkDock Fragalysis export,openbind_xx01zvns2b_c2_elabs_scored_top80percent_despaghettified

>  <subsites>  (185) 
1 - Z4590/B/203/1

>  <smiles>  (185) 
CCN1CCC(c2c[nH]c3ccc(C(=O)Nc4ccc5c(c4)C(=O)N([C@H]4CCCNC4=O)C5=O)cc23)CC1

>  <HIPPO Pose ID>  (185) 
142194

>  <energy_score>  (185) 
-86.215749

>  <inchikey>  (185) 
XPONGAXRXUVMTM-VWLOTQADSA-N

>  <gnina_score_min>  (185) 
6.431

>  <gnina_score>  (185) 
6.345

>  <ref_mols>  (185) 
Z4161a

>  <HIPPO Compound ID>  (185) 
199816

>  <distance_score>  (185) 
0.69844

>  <rmsd(smina/fragmenstein)>  (185) 
0.795

>  <ref_pdb>  (185) 
Z4161a

>  <inspiration_score>  (185) 
None

$$$$
P142196
     RDKit          3D

 38 43  0  0  0  0  0  0  0  0999 V2000
   -0.3488    9.2997  -16.2169 C   0  0  0  0  0  0  0  0  0  0  0  0
   -0.3736    7.9768  -16.9741 C   0  0  0  0  0  0  0  0  0  0  0  0
   -1.6978    7.3312  -16.9809 N   0  0  0  0  0  0  0  0  0  0  0  0
   -2.6857    8.1094  -17.7439 C   0  0  0  0  0  0  0  0  0  0  0  0
   -4.0560    7.4299  -17.7625 C   0  0  0  0  0  0  0  0  0  0  0  0
   -3.9457    6.0077  -18.3195 C   0  0  0  0  0  0  0  0  0  0  0  0
   -5.2756    5.3147  -18.4208 C   0  0  0  0  0  0  0  0  0  0  0  0
   -5.8612    4.9103  -19.5999 C   0  0  0  0  0  0  0  0  0  0  0  0
   -7.0938    4.3784  -19.3258 N   0  0  0  0  0  0  0  0  0  0  0  0
   -7.3325    4.4056  -17.9758 C   0  0  0  0  0  0  0  0  0  0  0  0
   -8.4636    3.9993  -17.2518 C   0  0  0  0  0  0  0  0  0  0  0  0
   -8.4739    4.2481  -15.8791 C   0  0  0  0  0  0  0  0  0  0  0  0
   -7.3706    4.8515  -15.2806 C   0  0  0  0  0  0  0  0  0  0  0  0
   -7.4439    5.4005  -13.9196 C   0  0  0  0  0  0  0  0  0  0  0  0
   -7.1102    6.5109  -13.7807 O   0  0  0  0  0  0  0  0  0  0  0  0
   -7.9199    4.3631  -12.8838 N   0  0  0  0  0  0  0  0  0  0  0  0
   -8.1667    4.4941  -11.5271 C   0  0  0  0  0  0  0  0  0  0  0  0
   -8.0255    5.7844  -10.9699 C   0  0  0  0  0  0  0  0  0  0  0  0
   -8.1548    6.0092   -9.6134 C   0  0  0  0  0  0  0  0  0  0  0  0
   -8.4207    4.9143   -8.8345 C   0  0  0  0  0  0  0  0  0  0  0  0
   -8.6014    3.6392   -9.3790 C   0  0  0  0  0  0  0  0  0  0  0  0
   -8.4865    3.3930  -10.7329 C   0  0  0  0  0  0  0  0  0  0  0  0
   -8.8351    2.7228   -8.2554 C   0  0  0  0  0  0  0  0  0  0  0  0
   -9.1048    1.5459   -8.3577 O   0  0  0  0  0  0  0  0  0  0  0  0
   -8.6525    3.4823   -7.1062 N   0  0  0  0  0  0  0  0  0  0  0  0
   -8.7152    2.9593   -5.7623 C   0  0  1  0  0  0  0  0  0  0  0  0
   -7.5707    3.5137   -4.9034 C   0  0  0  0  0  0  0  0  0  0  0  0
   -7.9200    4.7508   -4.0974 C   0  0  0  0  0  0  0  0  0  0  0  0
   -9.1964    4.5723   -3.3330 C   0  0  0  0  0  0  0  0  0  0  0  0
   -9.4597    5.2482   -2.3420 O   0  0  0  0  0  0  0  0  0  0  0  0
  -10.1048    3.7123   -3.8749 N   0  0  0  0  0  0  0  0  0  0  0  0
  -10.0861    3.2579   -5.1670 C   0  0  0  0  0  0  0  0  0  0  0  0
  -11.1399    3.1894   -5.7910 O   0  0  0  0  0  0  0  0  0  0  0  0
   -8.5177    4.8844   -7.3665 C   0  0  0  0  0  0  0  0  0  0  0  0
   -6.2159    5.1781  -16.0015 C   0  0  0  0  0  0  0  0  0  0  0  0
   -6.2054    4.9814  -17.3860 C   0  0  0  0  0  0  0  0  0  0  0  0
   -2.9015    5.2187  -17.5309 C   0  0  0  0  0  0  0  0  0  0  0  0
   -1.5688    5.9670  -17.5277 C   0  0  0  0  0  0  0  0  0  0  0  0
  1  2  1  0
  2  3  1  0
  3  4  1  0
  4  5  1  0
  5  6  1  0
  6  7  1  0
  7  8  2  0
  8  9  1  0
  9 10  1  0
 10 11  2  0
 11 12  1  0
 12 13  2  0
 13 14  1  0
 14 15  2  0
 14 16  1  0
 16 17  1  0
 17 18  2  0
 18 19  1  0
 19 20  2  0
 20 21  1  0
 21 22  2  0
 21 23  1  0
 23 24  2  0
 23 25  1  0
 26 25  1  6
 26 27  1  0
 27 28  1  0
 28 29  1  0
 29 30  2  0
 29 31  1  0
 31 32  1  0
 32 33  2  0
 25 34  1  0
 13 35  1  0
 35 36  2  0
  6 37  1  0
 37 38  1  0
 38  3  1  0
 36  7  1  0
 36 10  1  0
 22 17  1  0
 32 26  1  0
 34 20  1  0
M  END
>  <name>  (186) 
P142196

>  <alias>  (186) 
None

>  <smina_score_min>  (186) 
-9.785

>  <exports>  (186) 
['/opt/xchem-fragalysis-2/maxwin/BulkDock/OUTPUTS/openbind_xx01zvns2b_c2_elabs_1LOUTNY.sdf', '/opt/xchem-fragalysis-2/maxwin/BulkDock/OUTPUTS/openbind_xx01zvns2b_c2_elabs_1LSYIIV.sdf', '/opt/xchem-fragalysis-2/maxwin/openbind-hippo/xx01zvns2b/cycle_02/gnina/openbind_xx01zvns2b_c2_elabs_scored_6.2plus_products.sdf']

>  <tags>  (186) 
syndirella_placed,openbind_xx01zvns2b_c2_elabs,openbind_xx01zvns2b_c2_elabs_scored_6.2plus,syndirella_product,openbind_xx01zvns2b_c2_elabs_scored,openbind_xx01zvns2b_c2_elabs_scored_top80percent,BulkDock Fragalysis export,openbind_xx01zvns2b_c2_elabs_scored_top80percent_despaghettified

>  <subsites>  (186) 
1 - Z4590/B/203/1

>  <smiles>  (186) 
CCN1CCC(c2c[nH]c3ccc(C(=O)Nc4ccc5c(c4)C(=O)N([C@H]4CCC(=O)NC4=O)C5)cc23)CC1

>  <HIPPO Pose ID>  (186) 
142196

>  <energy_score>  (186) 
-62.25641

>  <inchikey>  (186) 
YVUSXUBCZOCCIW-VWLOTQADSA-N

>  <gnina_score_min>  (186) 
6.445

>  <gnina_score>  (186) 
6.356

>  <ref_mols>  (186) 
Z4161a

>  <HIPPO Compound ID>  (186) 
199817

>  <distance_score>  (186) 
0.775494

>  <rmsd(smina/fragmenstein)>  (186) 
0.731

>  <ref_pdb>  (186) 
Z4161a

>  <inspiration_score>  (186) 
None

$$$$
P142198
     RDKit          3D

 39 44  0  0  0  0  0  0  0  0999 V2000
   -0.3454    9.2878  -16.2033 C   0  0  0  0  0  0  0  0  0  0  0  0
   -0.3761    7.9711  -16.9709 C   0  0  0  0  0  0  0  0  0  0  0  0
   -1.6984    7.3209  -16.9668 N   0  0  0  0  0  0  0  0  0  0  0  0
   -1.5720    5.9640  -17.5324 C   0  0  0  0  0  0  0  0  0  0  0  0
   -2.9024    5.2113  -17.5291 C   0  0  0  0  0  0  0  0  0  0  0  0
   -3.9572    6.0073  -18.2959 C   0  0  0  0  0  0  0  0  0  0  0  0
   -5.2857    5.3119  -18.3971 C   0  0  0  0  0  0  0  0  0  0  0  0
   -5.8785    4.9282  -19.5794 C   0  0  0  0  0  0  0  0  0  0  0  0
   -7.1097    4.3926  -19.3076 N   0  0  0  0  0  0  0  0  0  0  0  0
   -7.3386    4.3926  -17.9554 C   0  0  0  0  0  0  0  0  0  0  0  0
   -8.4658    3.9735  -17.2320 C   0  0  0  0  0  0  0  0  0  0  0  0
   -8.4625    4.1840  -15.8528 C   0  0  0  0  0  0  0  0  0  0  0  0
   -7.3502    4.7635  -15.2480 C   0  0  0  0  0  0  0  0  0  0  0  0
   -7.4315    5.3040  -13.8868 C   0  0  0  0  0  0  0  0  0  0  0  0
   -7.1651    6.4358  -13.7679 O   0  0  0  0  0  0  0  0  0  0  0  0
   -7.8710    4.2624  -12.8336 N   0  0  0  0  0  0  0  0  0  0  0  0
   -8.1554    4.4109  -11.4837 C   0  0  0  0  0  0  0  0  0  0  0  0
   -8.1811    5.7456  -11.0130 C   0  0  0  0  0  0  0  0  0  0  0  0
   -8.3971    6.0406   -9.6887 C   0  0  0  0  0  0  0  0  0  0  0  0
   -8.5662    4.9595   -8.8697 C   0  0  0  0  0  0  0  0  0  0  0  0
   -8.5474    3.6376   -9.2801 C   0  0  0  0  0  0  0  0  0  0  0  0
   -8.3638    3.3243  -10.6173 C   0  0  0  0  0  0  0  0  0  0  0  0
   -8.6464    2.8372   -8.0440 C   0  0  0  0  0  0  0  0  0  0  0  0
   -8.7507    1.6304   -8.0139 O   0  0  0  0  0  0  0  0  0  0  0  0
   -8.5719    3.7392   -7.0080 N   0  0  0  0  0  0  0  0  0  0  0  0
   -8.3937    3.4764   -5.5965 C   0  0  1  0  0  0  0  0  0  0  0  0
   -7.3693    4.4586   -4.9924 C   0  0  0  0  0  0  0  0  0  0  0  0
   -7.2002    4.2847   -3.5059 C   0  0  0  0  0  0  0  0  0  0  0  0
   -8.5116    4.0890   -2.7798 C   0  0  0  0  0  0  0  0  0  0  0  0
   -8.5617    4.0060   -1.5543 O   0  0  0  0  0  0  0  0  0  0  0  0
   -9.6401    3.9914   -3.5477 N   0  0  0  0  0  0  0  0  0  0  0  0
   -9.7224    3.6416   -4.8778 C   0  0  0  0  0  0  0  0  0  0  0  0
  -10.8176    3.4622   -5.4010 O   0  0  0  0  0  0  0  0  0  0  0  0
   -8.7234    5.0114   -7.4478 C   0  0  0  0  0  0  0  0  0  0  0  0
   -8.9277    6.0454   -6.8383 O   0  0  0  0  0  0  0  0  0  0  0  0
   -6.2046    5.1166  -15.9720 C   0  0  0  0  0  0  0  0  0  0  0  0
   -6.2058    4.9536  -17.3615 C   0  0  0  0  0  0  0  0  0  0  0  0
   -4.0672    7.4204  -17.7167 C   0  0  0  0  0  0  0  0  0  0  0  0
   -2.6996    8.1055  -17.7056 C   0  0  0  0  0  0  0  0  0  0  0  0
  1  2  1  0
  2  3  1  0
  3  4  1  0
  4  5  1  0
  5  6  1  0
  6  7  1  0
  7  8  2  0
  8  9  1  0
  9 10  1  0
 10 11  2  0
 11 12  1  0
 12 13  2  0
 13 14  1  0
 14 15  2  0
 14 16  1  0
 16 17  1  0
 17 18  2  0
 18 19  1  0
 19 20  2  0
 20 21  1  0
 21 22  2  0
 21 23  1  0
 23 24  2  0
 23 25  1  0
 26 25  1  6
 26 27  1  0
 27 28  1  0
 28 29  1  0
 29 30  2  0
 29 31  1  0
 31 32  1  0
 32 33  2  0
 25 34  1  0
 34 35  2  0
 13 36  1  0
 36 37  2  0
  6 38  1  0
 38 39  1  0
 39  3  1  0
 37  7  1  0
 37 10  1  0
 22 17  1  0
 32 26  1  0
 34 20  1  0
M  END
>  <name>  (187) 
P142198

>  <alias>  (187) 
None

>  <smina_score_min>  (187) 
-10.227

>  <exports>  (187) 
['/opt/xchem-fragalysis-2/maxwin/BulkDock/OUTPUTS/openbind_xx01zvns2b_c2_elabs_1LOUTNY.sdf', '/opt/xchem-fragalysis-2/maxwin/BulkDock/OUTPUTS/openbind_xx01zvns2b_c2_elabs_1LSYIIV.sdf', '/opt/xchem-fragalysis-2/maxwin/openbind-hippo/xx01zvns2b/cycle_02/gnina/openbind_xx01zvns2b_c2_elabs_scored_6.2plus_products.sdf']

>  <tags>  (187) 
syndirella_placed,openbind_xx01zvns2b_c2_elabs,openbind_xx01zvns2b_c2_elabs_scored_6.2plus,syndirella_product,openbind_xx01zvns2b_c2_elabs_scored,openbind_xx01zvns2b_c2_elabs_scored_top80percent,BulkDock Fragalysis export,openbind_xx01zvns2b_c2_elabs_scored_top80percent_despaghettified

>  <subsites>  (187) 
1 - Z4590/B/203/1

>  <smiles>  (187) 
CCN1CCC(c2c[nH]c3ccc(C(=O)Nc4ccc5c(c4)C(=O)N([C@H]4CCC(=O)NC4=O)C5=O)cc23)CC1

>  <HIPPO Pose ID>  (187) 
142198

>  <energy_score>  (187) 
-52.484248

>  <inchikey>  (187) 
GKPYIXJSKHBSLV-DEOSSOPVSA-N

>  <gnina_score_min>  (187) 
6.316

>  <gnina_score>  (187) 
6.318

>  <ref_mols>  (187) 
Z4161a

>  <HIPPO Compound ID>  (187) 
199821

>  <distance_score>  (187) 
0.793862

>  <rmsd(smina/fragmenstein)>  (187) 
0.709

>  <ref_pdb>  (187) 
Z4161a

>  <inspiration_score>  (187) 
None

$$$$
P142199
     RDKit          3D

 39 44  0  0  0  0  0  0  0  0999 V2000
   -0.3476    9.2732  -16.2433 C   0  0  0  0  0  0  0  0  0  0  0  0
   -0.3456    7.9591  -17.0164 C   0  0  0  0  0  0  0  0  0  0  0  0
   -1.6653    7.3067  -17.0611 N   0  0  0  0  0  0  0  0  0  0  0  0
   -1.5178    5.9455  -17.6102 C   0  0  0  0  0  0  0  0  0  0  0  0
   -2.8456    5.1896  -17.6273 C   0  0  0  0  0  0  0  0  0  0  0  0
   -3.8922    5.9694  -18.4244 C   0  0  0  0  0  0  0  0  0  0  0  0
   -5.2246    5.2762  -18.5021 C   0  0  0  0  0  0  0  0  0  0  0  0
   -5.8430    4.8655  -19.6613 C   0  0  0  0  0  0  0  0  0  0  0  0
   -7.0736    4.3453  -19.3500 N   0  0  0  0  0  0  0  0  0  0  0  0
   -7.2813    4.3945  -17.9949 C   0  0  0  0  0  0  0  0  0  0  0  0
   -8.4011    4.0228  -17.2338 C   0  0  0  0  0  0  0  0  0  0  0  0
   -8.3789    4.3216  -15.8699 C   0  0  0  0  0  0  0  0  0  0  0  0
   -7.2488    4.9225  -15.3188 C   0  0  0  0  0  0  0  0  0  0  0  0
   -7.3012    5.6285  -14.0349 C   0  0  0  0  0  0  0  0  0  0  0  0
   -7.0134    6.7587  -14.0574 O   0  0  0  0  0  0  0  0  0  0  0  0
   -7.7911    4.7484  -12.8755 N   0  0  0  0  0  0  0  0  0  0  0  0
   -7.9355    5.0332  -11.5318 C   0  0  0  0  0  0  0  0  0  0  0  0
   -7.6030    6.3441  -11.1215 C   0  0  0  0  0  0  0  0  0  0  0  0
   -7.7331    6.7528   -9.8122 C   0  0  0  0  0  0  0  0  0  0  0  0
   -8.2027    5.8130   -8.9448 C   0  0  0  0  0  0  0  0  0  0  0  0
   -8.5341    4.5106   -9.3147 C   0  0  0  0  0  0  0  0  0  0  0  0
   -8.3958    4.0838  -10.6233 C   0  0  0  0  0  0  0  0  0  0  0  0
   -8.9567    3.7730   -8.0984 C   0  0  0  0  0  0  0  0  0  0  0  0
   -9.0487    4.8606   -7.0732 N   0  0  0  0  0  0  0  0  0  0  0  0
   -9.3152    4.7969   -5.6243 C   0  0  2  0  0  0  0  0  0  0  0  0
   -8.0556    4.4620   -4.8581 C   0  0  0  0  0  0  0  0  0  0  0  0
   -7.6373    3.0844   -5.3238 C   0  0  0  0  0  0  0  0  0  0  0  0
   -8.7549    2.1544   -5.8911 C   0  0  0  0  0  0  0  0  0  0  0  0
   -8.5136    1.1452   -6.5481 O   0  0  0  0  0  0  0  0  0  0  0  0
  -10.0538    2.5411   -5.6791 N   0  0  0  0  0  0  0  0  0  0  0  0
  -11.0254    1.5146   -5.5079 C   0  0  0  0  0  0  0  0  0  0  0  0
  -10.2509    3.7426   -5.0967 C   0  0  0  0  0  0  0  0  0  0  0  0
  -10.8544    3.8669   -4.0370 O   0  0  0  0  0  0  0  0  0  0  0  0
   -8.4736    6.0210   -7.5379 C   0  0  0  0  0  0  0  0  0  0  0  0
   -8.2328    7.0425   -6.9220 O   0  0  0  0  0  0  0  0  0  0  0  0
   -6.0977    5.1815  -16.0667 C   0  0  0  0  0  0  0  0  0  0  0  0
   -6.1302    4.9591  -17.4438 C   0  0  0  0  0  0  0  0  0  0  0  0
   -4.0050    7.4011  -17.8877 C   0  0  0  0  0  0  0  0  0  0  0  0
   -2.6359    8.0804  -17.8499 C   0  0  0  0  0  0  0  0  0  0  0  0
  1  2  1  0
  2  3  1  0
  3  4  1  0
  4  5  1  0
  5  6  1  0
  6  7  1  0
  7  8  2  0
  8  9  1  0
  9 10  1  0
 10 11  2  0
 11 12  1  0
 12 13  2  0
 13 14  1  0
 14 15  2  0
 14 16  1  0
 16 17  1  0
 17 18  2  0
 18 19  1  0
 19 20  2  0
 20 21  1  0
 21 22  2  0
 21 23  1  0
 23 24  1  0
 25 24  1  6
 25 26  1  0
 26 27  1  0
 27 28  1  0
 28 29  2  0
 28 30  1  0
 30 31  1  0
 30 32  1  0
 32 33  2  0
 24 34  1  0
 34 35  2  0
 13 36  1  0
 36 37  2  0
  6 38  1  0
 38 39  1  0
 39  3  1  0
 37  7  1  0
 37 10  1  0
 22 17  1  0
 32 25  1  0
 34 20  1  0
M  END
>  <name>  (188) 
P142199

>  <alias>  (188) 
None

>  <smina_score_min>  (188) 
-8.455

>  <exports>  (188) 
['/opt/xchem-fragalysis-2/maxwin/BulkDock/OUTPUTS/openbind_xx01zvns2b_c2_elabs_1LOUTNY.sdf', '/opt/xchem-fragalysis-2/maxwin/BulkDock/OUTPUTS/openbind_xx01zvns2b_c2_elabs_1LSYIIV.sdf', '/opt/xchem-fragalysis-2/maxwin/openbind-hippo/xx01zvns2b/cycle_02/gnina/openbind_xx01zvns2b_c2_elabs_scored_6.2plus_products.sdf']

>  <tags>  (188) 
syndirella_placed,openbind_xx01zvns2b_c2_elabs,openbind_xx01zvns2b_c2_elabs_scored_6.2plus,syndirella_product,openbind_xx01zvns2b_c2_elabs_scored,openbind_xx01zvns2b_c2_elabs_scored_top80percent,BulkDock Fragalysis export,openbind_xx01zvns2b_c2_elabs_scored_top80percent_despaghettified

>  <subsites>  (188) 
1 - Z4590/B/203/1

>  <smiles>  (188) 
CCN1CCC(c2c[nH]c3ccc(C(=O)Nc4ccc5c(c4)CN([C@@H]4CCC(=O)N(C)C4=O)C5=O)cc23)CC1

>  <HIPPO Pose ID>  (188) 
142199

>  <energy_score>  (188) 
-39.171689

>  <inchikey>  (188) 
AGKXASGKKFBDBY-AREMUKBSSA-N

>  <gnina_score_min>  (188) 
6.26

>  <gnina_score>  (188) 
6.377

>  <ref_mols>  (188) 
Z4161a

>  <HIPPO Compound ID>  (188) 
199822

>  <distance_score>  (188) 
1.269229

>  <rmsd(smina/fragmenstein)>  (188) 
2.23

>  <ref_pdb>  (188) 
Z4161a

>  <inspiration_score>  (188) 
None

$$$$
P142202
     RDKit          3D

 39 44  0  0  0  0  0  0  0  0999 V2000
   -0.3418    9.2208  -16.2573 C   0  0  0  0  0  0  0  0  0  0  0  0
   -0.3959    7.9251  -17.0596 C   0  0  0  0  0  0  0  0  0  0  0  0
   -1.7205    7.2813  -17.0380 N   0  0  0  0  0  0  0  0  0  0  0  0
   -1.6179    5.9307  -17.6225 C   0  0  0  0  0  0  0  0  0  0  0  0
   -2.9509    5.1833  -17.5766 C   0  0  0  0  0  0  0  0  0  0  0  0
   -4.0383    5.9872  -18.2897 C   0  0  0  0  0  0  0  0  0  0  0  0
   -5.3813    5.3074  -18.3109 C   0  0  0  0  0  0  0  0  0  0  0  0
   -6.0465    4.9066  -19.4480 C   0  0  0  0  0  0  0  0  0  0  0  0
   -7.2762    4.4104  -19.0973 N   0  0  0  0  0  0  0  0  0  0  0  0
   -7.4258    4.4418  -17.7319 C   0  0  0  0  0  0  0  0  0  0  0  0
   -8.5100    4.0667  -16.9200 C   0  0  0  0  0  0  0  0  0  0  0  0
   -8.3983    4.2691  -15.5364 C   0  0  0  0  0  0  0  0  0  0  0  0
   -7.2285    4.8014  -15.0015 C   0  0  0  0  0  0  0  0  0  0  0  0
   -7.0565    5.1832  -13.5793 C   0  0  0  0  0  0  0  0  0  0  0  0
   -6.4213    6.1488  -13.3957 O   0  0  0  0  0  0  0  0  0  0  0  0
   -7.6656    4.1753  -12.5721 N   0  0  0  0  0  0  0  0  0  0  0  0
   -7.6995    4.1966  -11.1808 C   0  0  0  0  0  0  0  0  0  0  0  0
   -6.9237    5.1966  -10.5564 C   0  0  0  0  0  0  0  0  0  0  0  0
   -6.8353    5.3073   -9.1820 C   0  0  0  0  0  0  0  0  0  0  0  0
   -7.5697    4.4204   -8.4404 C   0  0  0  0  0  0  0  0  0  0  0  0
   -8.3664    3.4439   -9.0348 C   0  0  0  0  0  0  0  0  0  0  0  0
   -8.4359    3.2875  -10.4146 C   0  0  0  0  0  0  0  0  0  0  0  0
   -9.1967    2.8830   -7.9504 C   0  0  0  0  0  0  0  0  0  0  0  0
  -10.0813    2.0676   -8.1029 O   0  0  0  0  0  0  0  0  0  0  0  0
   -8.8900    3.6006   -6.7815 N   0  0  0  0  0  0  0  0  0  0  0  0
   -9.9319    3.9883   -5.8322 C   0  0  1  0  0  0  0  0  0  0  0  0
   -9.9366    3.1800   -4.5638 C   0  0  0  0  0  0  0  0  0  0  0  0
   -8.6900    3.4661   -3.7572 C   0  0  0  0  0  0  0  0  0  0  0  0
   -8.4812    4.9304   -3.4911 C   0  0  0  0  0  0  0  0  0  0  0  0
   -7.6627    5.2861   -2.6415 O   0  0  0  0  0  0  0  0  0  0  0  0
   -9.1875    5.8202   -4.2867 N   0  0  0  0  0  0  0  0  0  0  0  0
   -9.0316    7.2368   -4.0066 C   0  0  0  0  0  0  0  0  0  0  0  0
   -9.8862    5.4816   -5.4526 C   0  0  0  0  0  0  0  0  0  0  0  0
  -10.3354    6.3510   -6.2009 O   0  0  0  0  0  0  0  0  0  0  0  0
   -7.7168    4.4151   -6.9744 C   0  0  0  0  0  0  0  0  0  0  0  0
   -6.1455    5.1347  -15.8324 C   0  0  0  0  0  0  0  0  0  0  0  0
   -6.2447    4.9786  -17.2193 C   0  0  0  0  0  0  0  0  0  0  0  0
   -4.1071    7.4053  -17.7123 C   0  0  0  0  0  0  0  0  0  0  0  0
   -2.7334    8.0769  -17.7471 C   0  0  0  0  0  0  0  0  0  0  0  0
  1  2  1  0
  2  3  1  0
  3  4  1  0
  4  5  1  0
  5  6  1  0
  6  7  1  0
  7  8  2  0
  8  9  1  0
  9 10  1  0
 10 11  2  0
 11 12  1  0
 12 13  2  0
 13 14  1  0
 14 15  2  0
 14 16  1  0
 16 17  1  0
 17 18  2  0
 18 19  1  0
 19 20  2  0
 20 21  1  0
 21 22  2  0
 21 23  1  0
 23 24  2  0
 23 25  1  0
 26 25  1  6
 26 27  1  0
 27 28  1  0
 28 29  1  0
 29 30  2  0
 29 31  1  0
 31 32  1  0
 31 33  1  0
 33 34  2  0
 25 35  1  0
 13 36  1  0
 36 37  2  0
  6 38  1  0
 38 39  1  0
 39  3  1  0
 37  7  1  0
 37 10  1  0
 22 17  1  0
 33 26  1  0
 35 20  1  0
M  END
>  <name>  (189) 
P142202

>  <alias>  (189) 
None

>  <smina_score_min>  (189) 
-9.805

>  <exports>  (189) 
['/opt/xchem-fragalysis-2/maxwin/BulkDock/OUTPUTS/openbind_xx01zvns2b_c2_elabs_1LOUTNY.sdf', '/opt/xchem-fragalysis-2/maxwin/BulkDock/OUTPUTS/openbind_xx01zvns2b_c2_elabs_1LSYIIV.sdf', '/opt/xchem-fragalysis-2/maxwin/openbind-hippo/xx01zvns2b/cycle_02/gnina/openbind_xx01zvns2b_c2_elabs_scored_6.2plus_products.sdf']

>  <tags>  (189) 
syndirella_placed,openbind_xx01zvns2b_c2_elabs,openbind_xx01zvns2b_c2_elabs_scored_6.2plus,syndirella_product,openbind_xx01zvns2b_c2_elabs_scored,openbind_xx01zvns2b_c2_elabs_scored_top80percent,BulkDock Fragalysis export,openbind_xx01zvns2b_c2_elabs_scored_top80percent_despaghettified

>  <subsites>  (189) 
1 - Z4590/B/203/1

>  <smiles>  (189) 
CCN1CCC(c2c[nH]c3ccc(C(=O)Nc4ccc5c(c4)C(=O)N([C@H]4CCC(=O)N(C)C4=O)C5)cc23)CC1

>  <HIPPO Pose ID>  (189) 
142202

>  <energy_score>  (189) 
-39.607798

>  <inchikey>  (189) 
ADOYDCFWVAOTCD-SANMLTNESA-N

>  <gnina_score_min>  (189) 
6.382

>  <gnina_score>  (189) 
6.319

>  <ref_mols>  (189) 
Z4161a

>  <HIPPO Compound ID>  (189) 
199823

>  <distance_score>  (189) 
0.764044

>  <rmsd(smina/fragmenstein)>  (189) 
0.787

>  <ref_pdb>  (189) 
Z4161a

>  <inspiration_score>  (189) 
None

$$$$
