ver_1.2
     RDKit          3D

 27 29  0  0  0  0  0  0  0  0999 V2000
   -3.3660   -3.0289   -2.0364 C   0  0  0  0  0  0  0  0  0  0  0  0
   -3.8739   -2.0423   -1.5692 C   0  0  0  0  0  0  0  0  0  0  0  0
   -4.4694   -0.8673   -1.0330 C   0  0  0  0  0  0  0  0  0  0  0  0
   -5.8251   -0.8423   -0.7661 C   0  0  0  0  0  0  0  0  0  0  0  0
   -6.4544    0.2506   -0.2530 N   0  0  0  0  0  0  0  0  0  0  0  0
   -5.7313    1.3632    0.0100 C   0  0  0  0  0  0  0  0  0  0  0  0
   -6.6357    2.7275    0.6731 Cl  0  0  0  0  0  0  0  0  0  0  0  0
   -4.3911    1.4159   -0.2259 C   0  0  0  0  0  0  0  0  0  0  0  0
   -3.6980    2.5418    0.0475 F   0  0  0  0  0  0  0  0  0  0  0  0
   -3.7546    0.2900   -0.7523 C   0  0  0  0  0  0  0  0  0  0  0  0
   -2.3516    0.3001   -1.0155 N   0  0  0  0  0  0  0  0  0  0  0  0
   -1.3686   -0.0880   -0.0678 C   0  0  0  0  0  0  0  0  0  0  0  0
   -1.7513   -0.4581    1.0563 O   0  0  0  0  0  0  0  0  0  0  0  0
    0.0352   -0.0266   -0.4780 C   0  0  0  0  0  0  0  0  0  0  0  0
    0.4148    0.3940   -1.7460 C   0  0  0  0  0  0  0  0  0  0  0  0
    1.6963    0.4550   -2.1348 N   0  0  0  0  0  0  0  0  0  0  0  0
    2.6944    0.0972   -1.2768 C   0  0  0  0  0  0  0  0  0  0  0  0
    2.3836   -0.3293   -0.0034 C   0  0  0  0  0  0  0  0  0  0  0  0
    3.3821   -0.7192    0.9464 N   0  0  0  0  0  0  0  0  0  0  0  0
    4.7606   -0.6958    0.6488 C   0  0  0  0  0  0  0  0  0  0  0  0
    5.0788   -0.3052   -0.5233 O   0  0  0  0  0  0  0  0  0  0  0  0
    5.8236   -1.0938    1.6108 C   0  0  0  0  0  0  0  0  0  0  0  0
    5.7094   -0.1719    2.8200 C   0  0  0  0  0  0  0  0  0  0  0  0
    6.4238    1.0984    2.4015 C   0  0  0  0  0  0  0  0  0  0  0  0
    7.0348    0.8192    1.0399 C   0  0  0  0  0  0  0  0  0  0  0  0
    7.1722   -0.6989    1.0395 C   0  0  0  0  0  0  0  0  0  0  0  0
    1.0615   -0.3851    0.3771 C   0  0  0  0  0  0  0  0  0  0  0  0
  1  2  3  0
  2  3  1  0
  3  4  2  0
  4  5  1  0
  5  6  2  0
  6  7  1  0
  6  8  1  0
  8  9  1  0
  8 10  2  0
 10 11  1  0
 11 12  1  0
 12 13  2  0
 12 14  1  0
 14 15  2  0
 15 16  1  0
 16 17  2  0
 17 18  1  0
 18 19  1  0
 19 20  1  0
 20 21  2  0
 20 22  1  0
 22 23  1  0
 23 24  1  0
 24 25  1  0
 25 26  1  0
 18 27  2  0
 10  3  1  0
 27 14  1  0
 26 22  1  0
M  END
>  <ref_url>  (1) 
https://hippo.winokan.com

>  <submitter_name>  (1) 
Max Winokan

>  <submitter_email>  (1) 
max.winokan@diamond.ac.uk

>  <submitter_institution>  (1) 
DLS

>  <generation_date>  (1) 
2025-12-09

>  <method>  (1) 
openbind_xx01zvns2b_c2_elabs_scored_6.2plus_products

>  <exports>  (1) 
exports

>  <gnina_score>  (1) 
gnina_score

>  <gnina_score_min>  (1) 
gnina_score_min

>  <smina_score_min>  (1) 
smina_score_min

>  <rmsd(smina/fragmenstein)>  (1) 
rmsd(smina/fragmenstein)

>  <HIPPO Pose ID>  (1) 
HIPPO Pose ID

>  <HIPPO Compound ID>  (1) 
HIPPO Compound ID

>  <smiles>  (1) 
smiles

>  <ref_pdb>  (1) 
protein reference

>  <ref_mols>  (1) 
fragment inspirations

>  <alias>  (1) 
alias

>  <distance_score>  (1) 
distance_score

>  <energy_score>  (1) 
energy_score

>  <inspiration_score>  (1) 
inspiration_score

>  <subsites>  (1) 
subsites

>  <tags>  (1) 
tags

$$$$
P102807
     RDKit          3D

 27 29  0  0  0  0  0  0  0  0999 V2000
   -8.0213    8.2042  -12.3007 C   0  0  0  0  0  0  0  0  0  0  0  0
   -8.0244    7.0867  -11.8598 C   0  0  0  0  0  0  0  0  0  0  0  0
   -8.0602    5.7912  -11.2550 C   0  0  0  0  0  0  0  0  0  0  0  0
   -8.0852    5.7665   -9.8588 C   0  0  0  0  0  0  0  0  0  0  0  0
   -8.3053    4.6685   -9.1080 N   0  0  0  0  0  0  0  0  0  0  0  0
   -8.5338    3.5261   -9.7924 C   0  0  0  0  0  0  0  0  0  0  0  0
   -9.0186    2.2296   -8.7865 Cl  0  0  0  0  0  0  0  0  0  0  0  0
   -8.4816    3.4310  -11.1768 C   0  0  0  0  0  0  0  0  0  0  0  0
   -8.7037    2.2693  -11.8085 F   0  0  0  0  0  0  0  0  0  0  0  0
   -8.2152    4.5776  -11.9376 C   0  0  0  0  0  0  0  0  0  0  0  0
   -8.1777    4.4114  -13.3390 N   0  0  0  0  0  0  0  0  0  0  0  0
   -7.5339    5.2933  -14.4415 C   0  0  0  0  0  0  0  0  0  0  0  0
   -7.0023    6.3322  -14.3666 O   0  0  0  0  0  0  0  0  0  0  0  0
   -7.7192    4.7597  -15.8180 C   0  0  0  0  0  0  0  0  0  0  0  0
   -8.8928    4.1464  -16.2261 C   0  0  0  0  0  0  0  0  0  0  0  0
   -9.1807    3.8193  -17.5105 N   0  0  0  0  0  0  0  0  0  0  0  0
   -8.2648    4.1781  -18.4381 C   0  0  0  0  0  0  0  0  0  0  0  0
   -7.0494    4.7819  -18.1342 C   0  0  0  0  0  0  0  0  0  0  0  0
   -6.1476    5.0895  -19.1453 N   0  0  0  0  0  0  0  0  0  0  0  0
   -4.6538    5.5350  -19.0692 C   0  0  0  0  0  0  0  0  0  0  0  0
   -3.9391    5.6346  -18.1487 O   0  0  0  0  0  0  0  0  0  0  0  0
   -4.2005    5.7530  -20.5190 C   0  0  0  0  0  0  0  0  0  0  0  0
   -4.7892    7.0451  -21.0968 C   0  0  0  0  0  0  0  0  0  0  0  0
   -3.6032    7.8898  -21.5512 C   0  0  0  0  0  0  0  0  0  0  0  0
   -2.4464    7.4021  -20.6989 C   0  0  0  0  0  0  0  0  0  0  0  0
   -2.6787    5.9008  -20.6457 C   0  0  0  0  0  0  0  0  0  0  0  0
   -6.7716    5.0631  -16.8002 C   0  0  0  0  0  0  0  0  0  0  0  0
  1  2  3  0
  2  3  1  0
  3  4  2  0
  4  5  1  0
  5  6  2  0
  6  7  1  0
  6  8  1  0
  8  9  1  0
  8 10  2  0
 10 11  1  0
 11 12  1  0
 12 13  2  0
 12 14  1  0
 14 15  2  0
 15 16  1  0
 16 17  2  0
 17 18  1  0
 18 19  1  0
 19 20  1  0
 20 21  2  0
 20 22  1  0
 22 23  1  0
 23 24  1  0
 24 25  1  0
 25 26  1  0
 18 27  2  0
 10  3  1  0
 27 14  1  0
 26 22  1  0
M  END
>  <name>  (1) 
P102807

>  <alias>  (1) 
None

>  <smina_score_min>  (1) 
-7.299

>  <exports>  (1) 
['/opt/xchem-fragalysis-2/maxwin/BulkDock/OUTPUTS/openbind_xx01zvns2b_c2_elabs_1LOUTNY.sdf', '/opt/xchem-fragalysis-2/maxwin/BulkDock/OUTPUTS/openbind_xx01zvns2b_c2_elabs_1LSYIIV.sdf']

>  <tags>  (1) 
syndirella_placed,openbind_xx01zvns2b_c2_elabs,openbind_xx01zvns2b_c2_elabs_scored_6.2plus,syndirella_product,openbind_xx01zvns2b_c2_elabs_scored,openbind_xx01zvns2b_c2_elabs_scored_top80percent,BulkDock Fragalysis export

>  <subsites>  (1) 
1 - Z4590/B/203/1

>  <smiles>  (1) 
C#Cc1cnc(Cl)c(F)c1NC(=O)c1cncc(NC(=O)C2CCCC2)c1

>  <HIPPO Pose ID>  (1) 
102807

>  <energy_score>  (1) 
-18.796935

>  <inchikey>  (1) 
GMLGLVPRFSRLEM-UHFFFAOYSA-N

>  <gnina_score_min>  (1) 
6.363

>  <gnina_score>  (1) 
6.485

>  <ref_mols>  (1) 
Z1597a

>  <HIPPO Compound ID>  (1) 
161788

>  <distance_score>  (1) 
0.456778

>  <rmsd(smina/fragmenstein)>  (1) 
0.489

>  <ref_pdb>  (1) 
Z1597a

>  <inspiration_score>  (1) 
None

$$$$
P102911
     RDKit          3D

 29 32  0  0  0  0  0  0  0  0999 V2000
   -5.7055    4.0727  -14.2276 O   0  0  0  0  0  0  0  0  0  0  0  0
   -6.7570    4.5547  -14.3639 C   0  0  0  0  0  0  0  0  0  0  0  0
   -7.7747    5.0445  -13.3155 N   0  0  0  0  0  0  0  0  0  0  0  0
   -7.7532    4.9599  -11.9282 C   0  0  0  0  0  0  0  0  0  0  0  0
   -7.2845    3.7877  -11.3352 C   0  0  0  0  0  0  0  0  0  0  0  0
   -7.3783    3.6645   -9.9596 C   0  0  0  0  0  0  0  0  0  0  0  0
   -7.8420    4.6452   -9.1554 N   0  0  0  0  0  0  0  0  0  0  0  0
   -8.2578    5.7769   -9.7623 C   0  0  0  0  0  0  0  0  0  0  0  0
   -8.2568    5.9910  -11.1386 C   0  0  0  0  0  0  0  0  0  0  0  0
   -8.6786    7.3262  -11.6877 C   0  0  0  0  0  0  0  0  0  0  0  0
   -7.4784    8.2145  -12.0390 C   0  0  0  0  0  0  0  0  0  0  0  0
   -7.8981    9.5982  -12.5687 C   0  0  0  0  0  0  0  0  0  0  0  0
   -6.6858   10.3607  -13.1157 C   0  0  0  0  0  0  0  0  0  0  0  0
   -7.0927   11.6774  -13.7826 C   0  0  0  0  0  0  0  0  0  0  0  0
   -8.3606   12.2959  -13.1931 C   0  0  0  0  0  0  0  0  0  0  0  0
   -8.5241   11.9462  -11.7214 C   0  0  0  0  0  0  0  0  0  0  0  0
   -8.6279   10.4346  -11.4990 C   0  0  0  0  0  0  0  0  0  0  0  0
   -7.3129    4.6581  -15.7389 C   0  0  0  0  0  0  0  0  0  0  0  0
   -8.5737    4.1344  -16.0079 C   0  0  0  0  0  0  0  0  0  0  0  0
   -9.1170    4.0346  -17.2426 N   0  0  0  0  0  0  0  0  0  0  0  0
   -8.3524    4.4857  -18.2595 C   0  0  0  0  0  0  0  0  0  0  0  0
   -7.0774    5.0290  -18.0944 C   0  0  0  0  0  0  0  0  0  0  0  0
   -6.3966    5.4847  -19.2152 N   0  0  0  0  0  0  0  0  0  0  0  0
   -4.9399    5.9413  -19.3807 C   0  0  0  0  0  0  0  0  0  0  0  0
   -4.0983    6.0815  -18.5890 O   0  0  0  0  0  0  0  0  0  0  0  0
   -4.6735    6.2024  -20.8263 C   0  0  0  0  0  0  0  0  0  0  0  0
   -3.4704    6.9959  -21.2670 C   0  0  0  0  0  0  0  0  0  0  0  0
   -4.8384    7.6000  -21.3757 C   0  0  0  0  0  0  0  0  0  0  0  0
   -6.5410    5.0989  -16.8105 C   0  0  0  0  0  0  0  0  0  0  0  0
  1  2  2  0
  2  3  1  0
  3  4  1  0
  4  5  2  0
  5  6  1  0
  6  7  2  0
  7  8  1  0
  8  9  2  0
  9 10  1  0
 10 11  1  0
 11 12  1  0
 12 13  1  0
 13 14  1  0
 14 15  1  0
 15 16  1  0
 16 17  1  0
  2 18  1  0
 18 19  2  0
 19 20  1  0
 20 21  2  0
 21 22  1  0
 22 23  1  0
 23 24  1  0
 24 25  2  0
 24 26  1  0
 26 27  1  0
 27 28  1  0
 22 29  2  0
  9  4  1  0
 17 12  1  0
 29 18  1  0
 28 26  1  0
M  END
>  <name>  (2) 
P102911

>  <alias>  (2) 
None

>  <smina_score_min>  (2) 
-6.467

>  <exports>  (2) 
['/opt/xchem-fragalysis-2/maxwin/BulkDock/OUTPUTS/openbind_xx01zvns2b_c2_elabs_1LOUTNY.sdf', '/opt/xchem-fragalysis-2/maxwin/BulkDock/OUTPUTS/openbind_xx01zvns2b_c2_elabs_1LSYIIV.sdf']

>  <tags>  (2) 
syndirella_placed,openbind_xx01zvns2b_c2_elabs,openbind_xx01zvns2b_c2_elabs_scored_6.2plus,syndirella_product,openbind_xx01zvns2b_c2_elabs_scored,openbind_xx01zvns2b_c2_elabs_scored_top80percent,BulkDock Fragalysis export

>  <subsites>  (2) 
1 - Z4590/B/203/1

>  <smiles>  (2) 
O=C(Nc1ccncc1CCC1CCCCC1)c1cncc(NC(=O)C2CC2)c1

>  <HIPPO Pose ID>  (2) 
102911

>  <energy_score>  (2) 
-5.699955

>  <inchikey>  (2) 
FHVZCMHWOWAIKS-UHFFFAOYSA-N

>  <gnina_score_min>  (2) 
6.239

>  <gnina_score>  (2) 
6.28

>  <ref_mols>  (2) 
Z1597a

>  <HIPPO Compound ID>  (2) 
161948

>  <distance_score>  (2) 
0.853795

>  <rmsd(smina/fragmenstein)>  (2) 
2.09

>  <ref_pdb>  (2) 
Z1597a

>  <inspiration_score>  (2) 
None

$$$$
P102916
     RDKit          3D

 29 33  0  0  0  0  0  0  0  0999 V2000
   -6.9032    8.2503  -10.1869 C   0  0  0  0  0  0  0  0  0  0  0  0
   -8.3455    7.7696  -10.3170 C   0  0  0  0  0  0  0  0  0  0  0  0
   -9.1658    8.2037   -9.1133 C   0  0  0  0  0  0  0  0  0  0  0  0
   -8.9537    8.2775  -11.6332 C   0  0  0  0  0  0  0  0  0  0  0  0
   -8.4516    7.3062  -12.7014 C   0  0  0  0  0  0  0  0  0  0  0  0
   -8.2462    6.0352  -11.9375 C   0  0  0  0  0  0  0  0  0  0  0  0
   -8.3163    6.2818  -10.5614 C   0  0  0  0  0  0  0  0  0  0  0  0
   -8.2058    5.3632   -9.5907 N   0  0  0  0  0  0  0  0  0  0  0  0
   -7.9879    4.1278  -10.0632 C   0  0  0  0  0  0  0  0  0  0  0  0
   -7.8150    3.7882  -11.4076 C   0  0  0  0  0  0  0  0  0  0  0  0
   -7.9714    4.7539  -12.3786 C   0  0  0  0  0  0  0  0  0  0  0  0
   -7.8110    4.4470  -13.7199 N   0  0  0  0  0  0  0  0  0  0  0  0
   -7.3836    5.3311  -14.9025 C   0  0  0  0  0  0  0  0  0  0  0  0
   -7.0238    6.4396  -14.9262 O   0  0  0  0  0  0  0  0  0  0  0  0
   -7.5535    4.6920  -16.2093 C   0  0  0  0  0  0  0  0  0  0  0  0
   -8.7392    4.0723  -16.5699 C   0  0  0  0  0  0  0  0  0  0  0  0
   -9.0253    3.7117  -17.8414 N   0  0  0  0  0  0  0  0  0  0  0  0
   -8.1100    4.0612  -18.7824 C   0  0  0  0  0  0  0  0  0  0  0  0
   -6.8933    4.6822  -18.5089 C   0  0  0  0  0  0  0  0  0  0  0  0
   -5.9997    5.0299  -19.5172 N   0  0  0  0  0  0  0  0  0  0  0  0
   -4.5909    5.6512  -19.4364 C   0  0  0  0  0  0  0  0  0  0  0  0
   -3.9263    5.8984  -18.5117 O   0  0  0  0  0  0  0  0  0  0  0  0
   -4.0389    5.8970  -20.7963 C   0  0  0  0  0  0  0  0  0  0  0  0
   -4.7427    6.7838  -21.7894 C   0  0  0  0  0  0  0  0  0  0  0  0
   -3.4815    7.2618  -21.1380 C   0  0  0  0  0  0  0  0  0  0  0  0
   -6.6095    4.9814  -17.1900 C   0  0  0  0  0  0  0  0  0  0  0  0
   -7.3187    2.3867  -11.5202 C   0  0  0  0  0  0  0  0  0  0  0  0
   -6.8122    2.1365  -10.0900 C   0  0  0  0  0  0  0  0  0  0  0  0
   -7.7284    2.9522   -9.1773 C   0  0  0  0  0  0  0  0  0  0  0  0
  1  2  1  0
  2  3  1  0
  2  4  1  0
  4  5  1  0
  5  6  1  0
  6  7  2  0
  7  8  1  0
  8  9  2  0
  9 10  1  0
 10 11  2  0
 11 12  1  0
 12 13  1  0
 13 14  2  0
 13 15  1  0
 15 16  2  0
 16 17  1  0
 17 18  2  0
 18 19  1  0
 19 20  1  0
 20 21  1  0
 21 22  2  0
 21 23  1  0
 23 24  1  0
 24 25  1  0
 19 26  2  0
 10 27  1  0
 27 28  1  0
 28 29  1  0
  7  2  1  0
 29  9  1  0
 11  6  1  0
 26 15  1  0
 25 23  1  0
M  END
>  <name>  (3) 
P102916

>  <alias>  (3) 
None

>  <smina_score_min>  (3) 
-7.252

>  <exports>  (3) 
['/opt/xchem-fragalysis-2/maxwin/BulkDock/OUTPUTS/openbind_xx01zvns2b_c2_elabs_1LOUTNY.sdf', '/opt/xchem-fragalysis-2/maxwin/BulkDock/OUTPUTS/openbind_xx01zvns2b_c2_elabs_1LSYIIV.sdf']

>  <tags>  (3) 
syndirella_placed,openbind_xx01zvns2b_c2_elabs,openbind_xx01zvns2b_c2_elabs_scored_6.2plus,syndirella_product,openbind_xx01zvns2b_c2_elabs_scored,openbind_xx01zvns2b_c2_elabs_scored_top80percent,BulkDock Fragalysis export

>  <subsites>  (3) 
1 - Z4590/B/203/1

>  <smiles>  (3) 
CC1(C)CCc2c1nc1c(c2NC(=O)c2cncc(NC(=O)C3CC3)c2)CCC1

>  <HIPPO Pose ID>  (3) 
102916

>  <energy_score>  (3) 
-48.18137

>  <inchikey>  (3) 
VWLBJPKEVSRWNA-UHFFFAOYSA-N

>  <gnina_score_min>  (3) 
6.258

>  <gnina_score>  (3) 
6.478

>  <ref_mols>  (3) 
Z1597a

>  <HIPPO Compound ID>  (3) 
161958

>  <distance_score>  (3) 
1.102683

>  <rmsd(smina/fragmenstein)>  (3) 
0.88

>  <ref_pdb>  (3) 
Z1597a

>  <inspiration_score>  (3) 
None

$$$$
P102939
     RDKit          3D

 29 31  0  0  0  0  0  0  0  0999 V2000
   -6.2134    2.4473   -9.4131 C   0  0  0  0  0  0  0  0  0  0  0  0
   -7.5266    3.1091   -8.9363 C   0  0  0  0  0  0  0  0  0  0  0  0
   -8.7064    2.1730   -8.6615 C   0  0  0  0  0  0  0  0  0  0  0  0
   -7.9487    4.2113   -9.8686 C   0  0  0  0  0  0  0  0  0  0  0  0
   -8.0339    5.4310   -9.2948 N   0  0  0  0  0  0  0  0  0  0  0  0
   -8.2465    6.4925  -10.0941 C   0  0  0  0  0  0  0  0  0  0  0  0
   -8.3834    8.1579   -9.1724 Br  0  0  0  0  0  0  0  0  0  0  0  0
   -8.3457    6.3969  -11.4790 C   0  0  0  0  0  0  0  0  0  0  0  0
   -8.6838    7.5633  -12.2278 C   0  0  0  0  0  0  0  0  0  0  0  0
   -9.0517    8.5217  -12.7710 N   0  0  0  0  0  0  0  0  0  0  0  0
   -8.2482    5.1240  -12.0647 C   0  0  0  0  0  0  0  0  0  0  0  0
   -8.1357    4.9171  -13.4517 N   0  0  0  0  0  0  0  0  0  0  0  0
   -7.4815    5.7806  -14.5389 C   0  0  0  0  0  0  0  0  0  0  0  0
   -6.9984    6.8377  -14.4738 O   0  0  0  0  0  0  0  0  0  0  0  0
   -7.4826    5.1230  -15.8698 C   0  0  0  0  0  0  0  0  0  0  0  0
   -8.5752    4.4555  -16.4001 C   0  0  0  0  0  0  0  0  0  0  0  0
   -8.6482    4.0702  -17.6962 N   0  0  0  0  0  0  0  0  0  0  0  0
   -7.5873    4.3856  -18.4919 C   0  0  0  0  0  0  0  0  0  0  0  0
   -6.4185    5.0034  -18.0441 C   0  0  0  0  0  0  0  0  0  0  0  0
   -5.3072    5.2822  -18.8768 N   0  0  0  0  0  0  0  0  0  0  0  0
   -5.4064    5.5314  -20.2855 C   0  0  0  0  0  0  0  0  0  0  0  0
   -4.0531    6.0877  -20.6829 C   0  0  0  0  0  0  0  0  0  0  0  0
   -3.1083    5.4676  -19.6798 C   0  0  0  0  0  0  0  0  0  0  0  0
   -3.9772    5.3068  -18.4578 C   0  0  0  0  0  0  0  0  0  0  0  0
   -3.5353    5.1460  -17.3321 O   0  0  0  0  0  0  0  0  0  0  0  0
   -6.3857    5.3617  -16.6999 C   0  0  0  0  0  0  0  0  0  0  0  0
   -8.1111    4.0110  -11.2361 C   0  0  0  0  0  0  0  0  0  0  0  0
   -7.9166    2.7203  -11.7944 C   0  0  0  0  0  0  0  0  0  0  0  0
   -7.6437    1.7022  -12.2673 N   0  0  0  0  0  0  0  0  0  0  0  0
  1  2  1  0
  2  3  1  0
  2  4  1  0
  4  5  2  0
  5  6  1  0
  6  7  1  0
  6  8  2  0
  8  9  1  0
  9 10  3  0
  8 11  1  0
 11 12  1  0
 12 13  1  0
 13 14  2  0
 13 15  1  0
 15 16  2  0
 16 17  1  0
 17 18  2  0
 18 19  1  0
 19 20  1  0
 20 21  1  0
 21 22  1  0
 22 23  1  0
 23 24  1  0
 24 25  2  0
 19 26  2  0
 11 27  2  0
 27 28  1  0
 28 29  3  0
 27  4  1  0
 26 15  1  0
 24 20  1  0
M  END
>  <name>  (4) 
P102939

>  <alias>  (4) 
None

>  <smina_score_min>  (4) 
-6.31

>  <exports>  (4) 
['/opt/xchem-fragalysis-2/maxwin/BulkDock/OUTPUTS/openbind_xx01zvns2b_c2_elabs_1LOUTNY.sdf', '/opt/xchem-fragalysis-2/maxwin/BulkDock/OUTPUTS/openbind_xx01zvns2b_c2_elabs_1LSYIIV.sdf']

>  <tags>  (4) 
syndirella_placed,openbind_xx01zvns2b_c2_elabs,openbind_xx01zvns2b_c2_elabs_scored_6.2plus,syndirella_product,openbind_xx01zvns2b_c2_elabs_scored,openbind_xx01zvns2b_c2_elabs_scored_top80percent,BulkDock Fragalysis export

>  <subsites>  (4) 
1 - Z4590/B/203/1

>  <smiles>  (4) 
CC(C)c1nc(Br)c(C#N)c(NC(=O)c2cncc(N3CCCC3=O)c2)c1C#N

>  <HIPPO Pose ID>  (4) 
102939

>  <energy_score>  (4) 
-22.45431

>  <inchikey>  (4) 
LODKRNIQRKDYQH-UHFFFAOYSA-N

>  <gnina_score_min>  (4) 
6.338

>  <gnina_score>  (4) 
6.197

>  <ref_mols>  (4) 
Z1597a

>  <HIPPO Compound ID>  (4) 
161993

>  <distance_score>  (4) 
0.904305

>  <rmsd(smina/fragmenstein)>  (4) 
0.93

>  <ref_pdb>  (4) 
Z1597a

>  <inspiration_score>  (4) 
None

$$$$
P102945
     RDKit          3D

 29 31  0  0  0  0  0  0  0  0999 V2000
   -6.8674    9.0346  -12.1011 C   0  0  0  0  0  0  0  0  0  0  0  0
   -6.9598    7.7512  -11.4840 O   0  0  0  0  0  0  0  0  0  0  0  0
   -8.0689    7.0612  -11.8431 C   0  0  0  0  0  0  0  0  0  0  0  0
   -9.0007    7.4458  -12.5313 O   0  0  0  0  0  0  0  0  0  0  0  0
   -8.0383    5.7475  -11.1961 C   0  0  0  0  0  0  0  0  0  0  0  0
   -8.1008    5.7533   -9.8051 C   0  0  0  0  0  0  0  0  0  0  0  0
   -8.3390    4.6576   -9.0527 N   0  0  0  0  0  0  0  0  0  0  0  0
   -8.5612    3.5068   -9.7316 C   0  0  0  0  0  0  0  0  0  0  0  0
   -9.0643    2.2184   -8.7235 Cl  0  0  0  0  0  0  0  0  0  0  0  0
   -8.4879    3.3986  -11.1144 C   0  0  0  0  0  0  0  0  0  0  0  0
   -8.7080    2.2357  -11.7429 F   0  0  0  0  0  0  0  0  0  0  0  0
   -8.1958    4.5348  -11.8742 C   0  0  0  0  0  0  0  0  0  0  0  0
   -8.0848    4.3694  -13.2661 N   0  0  0  0  0  0  0  0  0  0  0  0
   -7.4888    5.3069  -14.3468 C   0  0  0  0  0  0  0  0  0  0  0  0
   -6.9286    6.3271  -14.2390 O   0  0  0  0  0  0  0  0  0  0  0  0
   -7.7058    4.8277  -15.7424 C   0  0  0  0  0  0  0  0  0  0  0  0
   -8.8198    4.1088  -16.1446 C   0  0  0  0  0  0  0  0  0  0  0  0
   -9.0883    3.7570  -17.4273 N   0  0  0  0  0  0  0  0  0  0  0  0
   -8.2433    4.2357  -18.3687 C   0  0  0  0  0  0  0  0  0  0  0  0
   -7.1303    5.0168  -18.0778 C   0  0  0  0  0  0  0  0  0  0  0  0
   -6.3790    5.5849  -19.0991 N   0  0  0  0  0  0  0  0  0  0  0  0
   -5.1846    6.5858  -19.0404 C   0  0  0  0  0  0  0  0  0  0  0  0
   -4.6055    7.0213  -18.1221 O   0  0  0  0  0  0  0  0  0  0  0  0
   -4.8410    6.9435  -20.4903 C   0  0  0  0  0  0  0  0  0  0  0  0
   -4.2765    5.7611  -21.2547 C   0  0  0  0  0  0  0  0  0  0  0  0
   -2.8059    5.7097  -20.8581 C   0  0  0  0  0  0  0  0  0  0  0  0
   -2.4166    7.1505  -20.5434 C   0  0  0  0  0  0  0  0  0  0  0  0
   -3.7104    7.9609  -20.6012 C   0  0  0  0  0  0  0  0  0  0  0  0
   -6.8390    5.2746  -16.7430 C   0  0  0  0  0  0  0  0  0  0  0  0
  1  2  1  0
  2  3  1  0
  3  4  2  0
  3  5  1  0
  5  6  2  0
  6  7  1  0
  7  8  2  0
  8  9  1  0
  8 10  1  0
 10 11  1  0
 10 12  2  0
 12 13  1  0
 13 14  1  0
 14 15  2  0
 14 16  1  0
 16 17  2  0
 17 18  1  0
 18 19  2  0
 19 20  1  0
 20 21  1  0
 21 22  1  0
 22 23  2  0
 22 24  1  0
 24 25  1  0
 25 26  1  0
 26 27  1  0
 27 28  1  0
 20 29  2  0
 12  5  1  0
 29 16  1  0
 28 24  1  0
M  END
>  <name>  (5) 
P102945

>  <alias>  (5) 
None

>  <smina_score_min>  (5) 
-7.185

>  <exports>  (5) 
['/opt/xchem-fragalysis-2/maxwin/BulkDock/OUTPUTS/openbind_xx01zvns2b_c2_elabs_1LOUTNY.sdf', '/opt/xchem-fragalysis-2/maxwin/BulkDock/OUTPUTS/openbind_xx01zvns2b_c2_elabs_1LSYIIV.sdf']

>  <tags>  (5) 
syndirella_placed,openbind_xx01zvns2b_c2_elabs,openbind_xx01zvns2b_c2_elabs_scored_6.2plus,syndirella_product,openbind_xx01zvns2b_c2_elabs_scored,openbind_xx01zvns2b_c2_elabs_scored_top80percent,BulkDock Fragalysis export

>  <subsites>  (5) 
1 - Z4590/B/203/1

>  <smiles>  (5) 
COC(=O)c1cnc(Cl)c(F)c1NC(=O)c1cncc(NC(=O)C2CCCC2)c1

>  <HIPPO Pose ID>  (5) 
102945

>  <energy_score>  (5) 
-27.383119

>  <inchikey>  (5) 
ASWHJHKFBXYQCJ-UHFFFAOYSA-N

>  <gnina_score_min>  (5) 
6.38

>  <gnina_score>  (5) 
6.317

>  <ref_mols>  (5) 
Z1597a

>  <HIPPO Compound ID>  (5) 
162003

>  <distance_score>  (5) 
0.813164

>  <rmsd(smina/fragmenstein)>  (5) 
0.616

>  <ref_pdb>  (5) 
Z1597a

>  <inspiration_score>  (5) 
None

$$$$
P102954
     RDKit          3D

 30 34  0  0  0  0  0  0  0  0999 V2000
   -6.9114    6.6384  -14.4883 O   0  0  0  0  0  0  0  0  0  0  0  0
   -7.3937    5.5742  -14.4352 C   0  0  0  0  0  0  0  0  0  0  0  0
   -7.9489    4.7827  -13.2243 N   0  0  0  0  0  0  0  0  0  0  0  0
   -8.1081    5.1623  -11.8834 C   0  0  0  0  0  0  0  0  0  0  0  0
   -8.2444    6.4930  -11.4440 C   0  0  0  0  0  0  0  0  0  0  0  0
   -8.2062    6.7552  -10.0589 C   0  0  0  0  0  0  0  0  0  0  0  0
   -8.1085    5.8069   -9.1130 N   0  0  0  0  0  0  0  0  0  0  0  0
   -8.0781    4.5567   -9.5745 C   0  0  0  0  0  0  0  0  0  0  0  0
   -8.0840    4.1772  -10.9124 C   0  0  0  0  0  0  0  0  0  0  0  0
   -7.8923    2.7017  -11.0166 C   0  0  0  0  0  0  0  0  0  0  0  0
   -8.1731    2.2503   -9.5727 C   0  0  0  0  0  0  0  0  0  0  0  0
   -7.8245    3.4112   -8.6631 C   0  0  0  0  0  0  0  0  0  0  0  0
   -8.2450    8.1818   -9.5778 C   0  0  0  0  0  0  0  0  0  0  0  0
   -9.3752    8.9264  -10.2647 C   0  0  0  0  0  0  0  0  0  0  0  0
   -9.3241    8.8069  -11.7869 C   0  0  0  0  0  0  0  0  0  0  0  0
   -8.4329    7.6832  -12.3430 C   0  0  0  0  0  0  0  0  0  0  0  0
   -7.5897    4.9011  -15.7462 C   0  0  0  0  0  0  0  0  0  0  0  0
   -8.7511    4.2225  -16.0809 C   0  0  0  0  0  0  0  0  0  0  0  0
   -9.0629    3.8235  -17.3421 N   0  0  0  0  0  0  0  0  0  0  0  0
   -8.1946    4.1788  -18.3193 C   0  0  0  0  0  0  0  0  0  0  0  0
   -6.9950    4.8397  -18.0836 C   0  0  0  0  0  0  0  0  0  0  0  0
   -6.1397    5.1769  -19.1260 N   0  0  0  0  0  0  0  0  0  0  0  0
   -4.6348    5.5915  -19.1077 C   0  0  0  0  0  0  0  0  0  0  0  0
   -3.9133    5.7852  -18.2077 O   0  0  0  0  0  0  0  0  0  0  0  0
   -4.1956    5.6812  -20.5736 C   0  0  0  0  0  0  0  0  0  0  0  0
   -4.7615    6.9366  -21.2475 C   0  0  0  0  0  0  0  0  0  0  0  0
   -3.5619    7.7102  -21.7850 C   0  0  0  0  0  0  0  0  0  0  0  0
   -2.4066    7.2693  -20.9057 C   0  0  0  0  0  0  0  0  0  0  0  0
   -2.6716    5.7836  -20.7237 C   0  0  0  0  0  0  0  0  0  0  0  0
   -6.6845    5.1829  -16.7734 C   0  0  0  0  0  0  0  0  0  0  0  0
  1  2  2  0
  2  3  1  0
  3  4  1  0
  4  5  2  0
  5  6  1  0
  6  7  2  0
  7  8  1  0
  8  9  2  0
  9 10  1  0
 10 11  1  0
 11 12  1  0
  6 13  1  0
 13 14  1  0
 14 15  1  0
 15 16  1  0
  2 17  1  0
 17 18  2  0
 18 19  1  0
 19 20  2  0
 20 21  1  0
 21 22  1  0
 22 23  1  0
 23 24  2  0
 23 25  1  0
 25 26  1  0
 26 27  1  0
 27 28  1  0
 28 29  1  0
 21 30  2  0
  9  4  1  0
 30 17  1  0
 16  5  1  0
 29 25  1  0
 12  8  1  0
M  END
>  <name>  (6) 
P102954

>  <alias>  (6) 
None

>  <smina_score_min>  (6) 
-7.65

>  <exports>  (6) 
['/opt/xchem-fragalysis-2/maxwin/BulkDock/OUTPUTS/openbind_xx01zvns2b_c2_elabs_1LOUTNY.sdf', '/opt/xchem-fragalysis-2/maxwin/BulkDock/OUTPUTS/openbind_xx01zvns2b_c2_elabs_1LSYIIV.sdf']

>  <tags>  (6) 
syndirella_placed,openbind_xx01zvns2b_c2_elabs,openbind_xx01zvns2b_c2_elabs_scored_6.2plus,syndirella_product,openbind_xx01zvns2b_c2_elabs_scored,openbind_xx01zvns2b_c2_elabs_scored_top80percent,BulkDock Fragalysis export

>  <subsites>  (6) 
1 - Z4590/B/203/1

>  <smiles>  (6) 
O=C(Nc1c2c(nc3c1CCC3)CCCC2)c1cncc(NC(=O)C2CCCC2)c1

>  <HIPPO Pose ID>  (6) 
102954

>  <energy_score>  (6) 
-36.145343

>  <inchikey>  (6) 
PAOZAPNFQCXOIX-UHFFFAOYSA-N

>  <gnina_score_min>  (6) 
6.23

>  <gnina_score>  (6) 
6.33

>  <ref_mols>  (6) 
Z1597a

>  <HIPPO Compound ID>  (6) 
162012

>  <distance_score>  (6) 
0.86669

>  <rmsd(smina/fragmenstein)>  (6) 
0.769

>  <ref_pdb>  (6) 
Z1597a

>  <inspiration_score>  (6) 
None

$$$$
P102956
     RDKit          3D

 30 32  0  0  0  0  0  0  0  0999 V2000
   -6.2837    9.3472  -13.0422 C   0  0  0  0  0  0  0  0  0  0  0  0
   -6.9712    9.1603  -11.7047 C   0  0  0  0  0  0  0  0  0  0  0  0
   -7.0071    7.7749  -11.3335 O   0  0  0  0  0  0  0  0  0  0  0  0
   -8.0933    7.0793  -11.7521 C   0  0  0  0  0  0  0  0  0  0  0  0
   -9.0209    7.4823  -12.4343 O   0  0  0  0  0  0  0  0  0  0  0  0
   -8.0479    5.7357  -11.1581 C   0  0  0  0  0  0  0  0  0  0  0  0
   -8.0675    5.7083   -9.7647 C   0  0  0  0  0  0  0  0  0  0  0  0
   -8.3089    4.6054   -9.0262 N   0  0  0  0  0  0  0  0  0  0  0  0
   -8.5803    3.4756   -9.7212 C   0  0  0  0  0  0  0  0  0  0  0  0
   -9.0902    2.1828   -8.7224 Cl  0  0  0  0  0  0  0  0  0  0  0  0
   -8.5500    3.3944  -11.1079 C   0  0  0  0  0  0  0  0  0  0  0  0
   -8.8157    2.2488  -11.7496 F   0  0  0  0  0  0  0  0  0  0  0  0
   -8.2542    4.5393  -11.8550 C   0  0  0  0  0  0  0  0  0  0  0  0
   -8.1755    4.3994  -13.2522 N   0  0  0  0  0  0  0  0  0  0  0  0
   -7.5534    5.3278  -14.3212 C   0  0  0  0  0  0  0  0  0  0  0  0
   -7.0777    6.3894  -14.2173 O   0  0  0  0  0  0  0  0  0  0  0  0
   -7.6499    4.8122  -15.7124 C   0  0  0  0  0  0  0  0  0  0  0  0
   -8.7613    4.1666  -16.2267 C   0  0  0  0  0  0  0  0  0  0  0  0
   -8.9218    3.8647  -17.5413 N   0  0  0  0  0  0  0  0  0  0  0  0
   -7.9501    4.2932  -18.3888 C   0  0  0  0  0  0  0  0  0  0  0  0
   -6.8021    4.9584  -17.9739 C   0  0  0  0  0  0  0  0  0  0  0  0
   -5.8572    5.4535  -18.8702 N   0  0  0  0  0  0  0  0  0  0  0  0
   -4.4437    6.0672  -18.6165 C   0  0  0  0  0  0  0  0  0  0  0  0
   -3.8311    6.1771  -17.6237 O   0  0  0  0  0  0  0  0  0  0  0  0
   -3.9032    6.6776  -19.9122 C   0  0  0  0  0  0  0  0  0  0  0  0
   -4.7060    7.8948  -20.3557 C   0  0  0  0  0  0  0  0  0  0  0  0
   -4.5100    7.9508  -21.8575 C   0  0  0  0  0  0  0  0  0  0  0  0
   -4.5362    6.4898  -22.2609 C   0  0  0  0  0  0  0  0  0  0  0  0
   -3.8354    5.7506  -21.1210 C   0  0  0  0  0  0  0  0  0  0  0  0
   -6.6477    5.1884  -16.6114 C   0  0  0  0  0  0  0  0  0  0  0  0
  1  2  1  0
  2  3  1  0
  3  4  1  0
  4  5  2  0
  4  6  1  0
  6  7  2  0
  7  8  1  0
  8  9  2  0
  9 10  1  0
  9 11  1  0
 11 12  1  0
 11 13  2  0
 13 14  1  0
 14 15  1  0
 15 16  2  0
 15 17  1  0
 17 18  2  0
 18 19  1  0
 19 20  2  0
 20 21  1  0
 21 22  1  0
 22 23  1  0
 23 24  2  0
 23 25  1  0
 25 26  1  0
 26 27  1  0
 27 28  1  0
 28 29  1  0
 21 30  2  0
 13  6  1  0
 30 17  1  0
 29 25  1  0
M  END
>  <name>  (7) 
P102956

>  <alias>  (7) 
None

>  <smina_score_min>  (7) 
-6.902

>  <exports>  (7) 
['/opt/xchem-fragalysis-2/maxwin/BulkDock/OUTPUTS/openbind_xx01zvns2b_c2_elabs_1LOUTNY.sdf', '/opt/xchem-fragalysis-2/maxwin/BulkDock/OUTPUTS/openbind_xx01zvns2b_c2_elabs_1LSYIIV.sdf']

>  <tags>  (7) 
syndirella_placed,openbind_xx01zvns2b_c2_elabs,openbind_xx01zvns2b_c2_elabs_scored_6.2plus,syndirella_product,openbind_xx01zvns2b_c2_elabs_scored,openbind_xx01zvns2b_c2_elabs_scored_top80percent,BulkDock Fragalysis export

>  <subsites>  (7) 
1 - Z4590/B/203/1

>  <smiles>  (7) 
CCOC(=O)c1cnc(Cl)c(F)c1NC(=O)c1cncc(NC(=O)C2CCCC2)c1

>  <HIPPO Pose ID>  (7) 
102956

>  <energy_score>  (7) 
-31.722403

>  <inchikey>  (7) 
KAGKQXFVYJZQEG-UHFFFAOYSA-N

>  <gnina_score_min>  (7) 
6.241

>  <gnina_score>  (7) 
6.312

>  <ref_mols>  (7) 
Z1597a

>  <HIPPO Compound ID>  (7) 
162016

>  <distance_score>  (7) 
0.696255

>  <rmsd(smina/fragmenstein)>  (7) 
0.806

>  <ref_pdb>  (7) 
Z1597a

>  <inspiration_score>  (7) 
None

$$$$
P102963
     RDKit          3D

 30 33  0  0  0  0  0  0  0  0999 V2000
   -3.6931    9.5352  -20.6859 C   0  0  0  0  0  0  0  0  0  0  0  0
   -3.5015    8.0560  -20.3879 C   0  0  0  0  0  0  0  0  0  0  0  0
   -4.5609    7.2061  -21.0915 C   0  0  0  0  0  0  0  0  0  0  0  0
   -4.3752    5.7167  -20.8556 C   0  0  0  0  0  0  0  0  0  0  0  0
   -4.7396    5.3141  -19.4361 C   0  0  0  0  0  0  0  0  0  0  0  0
   -3.9534    5.2854  -18.5709 O   0  0  0  0  0  0  0  0  0  0  0  0
   -6.2573    4.9636  -19.4324 N   0  0  0  0  0  0  0  0  0  0  0  0
   -7.0971    4.6138  -18.3871 C   0  0  0  0  0  0  0  0  0  0  0  0
   -8.3501    4.0596  -18.6279 C   0  0  0  0  0  0  0  0  0  0  0  0
   -9.2298    3.7196  -17.6567 N   0  0  0  0  0  0  0  0  0  0  0  0
   -8.8732    4.0451  -16.3916 C   0  0  0  0  0  0  0  0  0  0  0  0
   -7.6532    4.6106  -16.0599 C   0  0  0  0  0  0  0  0  0  0  0  0
   -7.4501    5.2821  -14.7695 C   0  0  0  0  0  0  0  0  0  0  0  0
   -7.0119    6.3621  -14.8455 O   0  0  0  0  0  0  0  0  0  0  0  0
   -7.9444    4.4866  -13.5419 N   0  0  0  0  0  0  0  0  0  0  0  0
   -8.0866    4.8717  -12.2148 C   0  0  0  0  0  0  0  0  0  0  0  0
   -7.9510    3.9832  -11.1665 C   0  0  0  0  0  0  0  0  0  0  0  0
   -7.9601    4.4720   -9.8516 C   0  0  0  0  0  0  0  0  0  0  0  0
   -8.1154    5.7491   -9.4861 N   0  0  0  0  0  0  0  0  0  0  0  0
   -8.3130    6.5651  -10.5270 C   0  0  0  0  0  0  0  0  0  0  0  0
   -8.3193    6.1927  -11.8746 C   0  0  0  0  0  0  0  0  0  0  0  0
   -8.5820    7.3882  -12.7371 C   0  0  0  0  0  0  0  0  0  0  0  0
   -9.0808    8.4303  -11.7353 C   0  0  0  0  0  0  0  0  0  0  0  0
   -8.3983    8.0631  -10.4083 C   0  0  0  0  0  0  0  0  0  0  0  0
   -9.2012    8.5487   -9.2097 C   0  0  0  0  0  0  0  0  0  0  0  0
   -6.9761    8.6109  -10.3759 C   0  0  0  0  0  0  0  0  0  0  0  0
   -7.5840    3.4202   -8.8642 C   0  0  0  0  0  0  0  0  0  0  0  0
   -7.8640    2.1757   -9.6856 C   0  0  0  0  0  0  0  0  0  0  0  0
   -7.6040    2.5356  -11.1581 C   0  0  0  0  0  0  0  0  0  0  0  0
   -6.7348    4.8661  -17.0764 C   0  0  0  0  0  0  0  0  0  0  0  0
  1  2  1  0
  2  3  1  0
  3  4  1  0
  4  5  1  0
  5  6  2  0
  5  7  1  0
  7  8  1  0
  8  9  2  0
  9 10  1  0
 10 11  2  0
 11 12  1  0
 12 13  1  0
 13 14  2  0
 13 15  1  0
 15 16  1  0
 16 17  2  0
 17 18  1  0
 18 19  2  0
 19 20  1  0
 20 21  2  0
 21 22  1  0
 22 23  1  0
 23 24  1  0
 24 25  1  0
 24 26  1  0
 18 27  1  0
 27 28  1  0
 28 29  1  0
 12 30  2  0
 30  8  1  0
 21 16  1  0
 29 17  1  0
 24 20  1  0
M  END
>  <name>  (8) 
P102963

>  <alias>  (8) 
None

>  <smina_score_min>  (8) 
-6.917

>  <exports>  (8) 
['/opt/xchem-fragalysis-2/maxwin/BulkDock/OUTPUTS/openbind_xx01zvns2b_c2_elabs_1LOUTNY.sdf', '/opt/xchem-fragalysis-2/maxwin/BulkDock/OUTPUTS/openbind_xx01zvns2b_c2_elabs_1LSYIIV.sdf']

>  <tags>  (8) 
syndirella_placed,openbind_xx01zvns2b_c2_elabs,openbind_xx01zvns2b_c2_elabs_scored_6.2plus,syndirella_product,openbind_xx01zvns2b_c2_elabs_scored,openbind_xx01zvns2b_c2_elabs_scored_top80percent,BulkDock Fragalysis export

>  <subsites>  (8) 
1 - Z4590/B/203/1

>  <smiles>  (8) 
CCCCC(=O)Nc1cncc(C(=O)Nc2c3c(nc4c2CCC4(C)C)CCC3)c1

>  <HIPPO Pose ID>  (8) 
102963

>  <energy_score>  (8) 
-15.583073

>  <inchikey>  (8) 
JPSDQFXLUYTXPL-UHFFFAOYSA-N

>  <gnina_score_min>  (8) 
6.253

>  <gnina_score>  (8) 
6.351

>  <ref_mols>  (8) 
Z1597a

>  <HIPPO Compound ID>  (8) 
162031

>  <distance_score>  (8) 
1.147364

>  <rmsd(smina/fragmenstein)>  (8) 
0.937

>  <ref_pdb>  (8) 
Z1597a

>  <inspiration_score>  (8) 
None

$$$$
P102975
     RDKit          3D

 30 34  0  0  0  0  0  0  0  0999 V2000
   -5.8438    4.3417  -14.1945 O   0  0  0  0  0  0  0  0  0  0  0  0
   -6.9041    4.8152  -14.3268 C   0  0  0  0  0  0  0  0  0  0  0  0
   -7.9240    5.3099  -13.2667 N   0  0  0  0  0  0  0  0  0  0  0  0
   -7.8888    5.2379  -11.8674 C   0  0  0  0  0  0  0  0  0  0  0  0
   -7.3996    4.0620  -11.2997 C   0  0  0  0  0  0  0  0  0  0  0  0
   -7.0858    4.0721   -9.9541 C   0  0  0  0  0  0  0  0  0  0  0  0
   -7.3475    5.1054   -9.1372 N   0  0  0  0  0  0  0  0  0  0  0  0
   -7.9385    6.1817   -9.6526 C   0  0  0  0  0  0  0  0  0  0  0  0
   -8.2153    7.1938   -8.7454 C   0  0  0  0  0  0  0  0  0  0  0  0
   -8.8074    8.3899   -9.1285 C   0  0  0  0  0  0  0  0  0  0  0  0
   -9.1339    8.5760  -10.4577 C   0  0  0  0  0  0  0  0  0  0  0  0
   -8.8673    7.5638  -11.3898 C   0  0  0  0  0  0  0  0  0  0  0  0
   -9.4744    7.8598  -12.9720 Cl  0  0  0  0  0  0  0  0  0  0  0  0
   -8.2530    6.3324  -11.0248 C   0  0  0  0  0  0  0  0  0  0  0  0
   -6.3649    2.8887   -9.3828 C   0  0  0  0  0  0  0  0  0  0  0  0
   -5.3630    2.3174  -10.3819 C   0  0  0  0  0  0  0  0  0  0  0  0
   -6.0000    2.0022  -11.7347 C   0  0  0  0  0  0  0  0  0  0  0  0
   -7.3250    2.7248  -11.9740 C   0  0  0  0  0  0  0  0  0  0  0  0
   -7.4248    4.8774  -15.7062 C   0  0  0  0  0  0  0  0  0  0  0  0
   -8.5774    4.1785  -16.0377 C   0  0  0  0  0  0  0  0  0  0  0  0
   -9.0199    3.9993  -17.3058 N   0  0  0  0  0  0  0  0  0  0  0  0
   -8.2713    4.5647  -18.2808 C   0  0  0  0  0  0  0  0  0  0  0  0
   -7.1104    5.3033  -18.0449 C   0  0  0  0  0  0  0  0  0  0  0  0
   -6.4733    5.9448  -19.1021 N   0  0  0  0  0  0  0  0  0  0  0  0
   -5.1652    6.7537  -19.1381 C   0  0  0  0  0  0  0  0  0  0  0  0
   -4.4533    7.0763  -18.2752 O   0  0  0  0  0  0  0  0  0  0  0  0
   -4.8589    7.2093  -20.5259 C   0  0  0  0  0  0  0  0  0  0  0  0
   -4.9118    6.2854  -21.7155 C   0  0  0  0  0  0  0  0  0  0  0  0
   -3.5850    6.7310  -21.1843 C   0  0  0  0  0  0  0  0  0  0  0  0
   -6.6621    5.4273  -16.7332 C   0  0  0  0  0  0  0  0  0  0  0  0
  1  2  2  0
  2  3  1  0
  3  4  1  0
  4  5  2  0
  5  6  1  0
  6  7  2  0
  7  8  1  0
  8  9  2  0
  9 10  1  0
 10 11  2  0
 11 12  1  0
 12 13  1  0
 12 14  2  0
  6 15  1  0
 15 16  1  0
 16 17  1  0
 17 18  1  0
  2 19  1  0
 19 20  2  0
 20 21  1  0
 21 22  2  0
 22 23  1  0
 23 24  1  0
 24 25  1  0
 25 26  2  0
 25 27  1  0
 27 28  1  0
 28 29  1  0
 23 30  2  0
 14  4  1  0
 30 19  1  0
 18  5  1  0
 29 27  1  0
 14  8  1  0
M  END
>  <name>  (9) 
P102975

>  <alias>  (9) 
None

>  <smina_score_min>  (9) 
-7.053

>  <exports>  (9) 
['/opt/xchem-fragalysis-2/maxwin/BulkDock/OUTPUTS/openbind_xx01zvns2b_c2_elabs_1LOUTNY.sdf', '/opt/xchem-fragalysis-2/maxwin/BulkDock/OUTPUTS/openbind_xx01zvns2b_c2_elabs_1LSYIIV.sdf']

>  <tags>  (9) 
syndirella_placed,openbind_xx01zvns2b_c2_elabs,openbind_xx01zvns2b_c2_elabs_scored_6.2plus,syndirella_product,openbind_xx01zvns2b_c2_elabs_scored,openbind_xx01zvns2b_c2_elabs_scored_top80percent,BulkDock Fragalysis export

>  <subsites>  (9) 
1 - Z4590/B/203/1

>  <smiles>  (9) 
O=C(Nc1c2c(nc3cccc(Cl)c13)CCCC2)c1cncc(NC(=O)C2CC2)c1

>  <HIPPO Pose ID>  (9) 
102975

>  <energy_score>  (9) 
-31.46074

>  <inchikey>  (9) 
ZDGJZTPXCWKRDV-UHFFFAOYSA-N

>  <gnina_score_min>  (9) 
6.512

>  <gnina_score>  (9) 
6.504

>  <ref_mols>  (9) 
Z1597a

>  <HIPPO Compound ID>  (9) 
162051

>  <distance_score>  (9) 
1.092227

>  <rmsd(smina/fragmenstein)>  (9) 
0.736

>  <ref_pdb>  (9) 
Z1597a

>  <inspiration_score>  (9) 
None

$$$$
P102978
     RDKit          3D

 30 34  0  0  0  0  0  0  0  0999 V2000
   -8.1122    8.0698   -8.8000 C   0  0  0  0  0  0  0  0  0  0  0  0
   -8.4428    7.7132  -10.2049 C   0  0  0  0  0  0  0  0  0  0  0  0
   -8.9129    8.7205  -11.0638 C   0  0  0  0  0  0  0  0  0  0  0  0
   -9.2136    8.4171  -12.3734 C   0  0  0  0  0  0  0  0  0  0  0  0
   -8.9956    7.1208  -12.8165 C   0  0  0  0  0  0  0  0  0  0  0  0
   -8.4660    6.1128  -11.9736 C   0  0  0  0  0  0  0  0  0  0  0  0
   -8.2096    4.7975  -12.3978 C   0  0  0  0  0  0  0  0  0  0  0  0
   -8.0525    4.5017  -13.7505 N   0  0  0  0  0  0  0  0  0  0  0  0
   -7.4992    5.3580  -14.9032 C   0  0  0  0  0  0  0  0  0  0  0  0
   -7.0155    6.4192  -14.8922 O   0  0  0  0  0  0  0  0  0  0  0  0
   -7.6638    4.7360  -16.2242 C   0  0  0  0  0  0  0  0  0  0  0  0
   -8.8336    4.1021  -16.6098 C   0  0  0  0  0  0  0  0  0  0  0  0
   -9.0856    3.7228  -17.8824 N   0  0  0  0  0  0  0  0  0  0  0  0
   -8.1471    4.0614  -18.8030 C   0  0  0  0  0  0  0  0  0  0  0  0
   -6.9399    4.6887  -18.5067 C   0  0  0  0  0  0  0  0  0  0  0  0
   -6.0242    5.0221  -19.4997 N   0  0  0  0  0  0  0  0  0  0  0  0
   -4.6159    5.6400  -19.3962 C   0  0  0  0  0  0  0  0  0  0  0  0
   -3.9703    5.8960  -18.4608 O   0  0  0  0  0  0  0  0  0  0  0  0
   -4.0391    5.8712  -20.7488 C   0  0  0  0  0  0  0  0  0  0  0  0
   -4.7179    6.7643  -21.7544 C   0  0  0  0  0  0  0  0  0  0  0  0
   -3.4576    7.2259  -21.0894 C   0  0  0  0  0  0  0  0  0  0  0  0
   -6.6924    5.0078  -17.1851 C   0  0  0  0  0  0  0  0  0  0  0  0
   -7.9370    3.8150  -11.4611 C   0  0  0  0  0  0  0  0  0  0  0  0
   -7.7305    4.2065  -10.1463 C   0  0  0  0  0  0  0  0  0  0  0  0
   -7.8559    5.4743   -9.7271 N   0  0  0  0  0  0  0  0  0  0  0  0
   -8.2464    6.4008  -10.6210 C   0  0  0  0  0  0  0  0  0  0  0  0
   -7.1919    3.1859   -9.1819 C   0  0  0  0  0  0  0  0  0  0  0  0
   -6.0397    2.4217   -9.8502 C   0  0  0  0  0  0  0  0  0  0  0  0
   -6.3893    1.8858  -11.2448 C   0  0  0  0  0  0  0  0  0  0  0  0
   -7.7446    2.3712  -11.7448 C   0  0  0  0  0  0  0  0  0  0  0  0
  1  2  1  0
  2  3  2  0
  3  4  1  0
  4  5  2  0
  5  6  1  0
  6  7  2  0
  7  8  1  0
  8  9  1  0
  9 10  2  0
  9 11  1  0
 11 12  2  0
 12 13  1  0
 13 14  2  0
 14 15  1  0
 15 16  1  0
 16 17  1  0
 17 18  2  0
 17 19  1  0
 19 20  1  0
 20 21  1  0
 15 22  2  0
  7 23  1  0
 23 24  2  0
 24 25  1  0
 25 26  2  0
 24 27  1  0
 27 28  1  0
 28 29  1  0
 29 30  1  0
 26  2  1  0
 26  6  1  0
 22 11  1  0
 30 23  1  0
 21 19  1  0
M  END
>  <name>  (10) 
P102978

>  <alias>  (10) 
None

>  <smina_score_min>  (10) 
-7.374

>  <exports>  (10) 
['/opt/xchem-fragalysis-2/maxwin/BulkDock/OUTPUTS/openbind_xx01zvns2b_c2_elabs_1LOUTNY.sdf', '/opt/xchem-fragalysis-2/maxwin/BulkDock/OUTPUTS/openbind_xx01zvns2b_c2_elabs_1LSYIIV.sdf']

>  <tags>  (10) 
syndirella_placed,openbind_xx01zvns2b_c2_elabs,openbind_xx01zvns2b_c2_elabs_scored_6.2plus,syndirella_product,openbind_xx01zvns2b_c2_elabs_scored,openbind_xx01zvns2b_c2_elabs_scored_top80percent,BulkDock Fragalysis export

>  <subsites>  (10) 
1 - Z4590/B/203/1

>  <smiles>  (10) 
Cc1cccc2c(NC(=O)c3cncc(NC(=O)C4CC4)c3)c3c(nc12)CCCC3

>  <HIPPO Pose ID>  (10) 
102978

>  <energy_score>  (10) 
-18.979936

>  <inchikey>  (10) 
QWFJFYHYJOZWEN-UHFFFAOYSA-N

>  <gnina_score_min>  (10) 
6.338

>  <gnina_score>  (10) 
6.477

>  <ref_mols>  (10) 
Z1597a

>  <HIPPO Compound ID>  (10) 
162054

>  <distance_score>  (10) 
1.182541

>  <rmsd(smina/fragmenstein)>  (10) 
0.936

>  <ref_pdb>  (10) 
Z1597a

>  <inspiration_score>  (10) 
None

$$$$
P102981
     RDKit          3D

 30 33  0  0  0  0  0  0  0  0999 V2000
   -1.9329    7.6263  -23.2546 C   0  0  0  0  0  0  0  0  0  0  0  0
   -3.3543    7.2497  -22.8694 C   0  0  0  0  0  0  0  0  0  0  0  0
   -3.4528    6.8691  -21.3923 C   0  0  0  0  0  0  0  0  0  0  0  0
   -4.8589    6.4161  -21.0302 C   0  0  0  0  0  0  0  0  0  0  0  0
   -5.0027    6.1490  -19.5360 C   0  0  0  0  0  0  0  0  0  0  0  0
   -4.2315    6.4892  -18.7272 O   0  0  0  0  0  0  0  0  0  0  0  0
   -6.3497    5.3866  -19.3860 N   0  0  0  0  0  0  0  0  0  0  0  0
   -7.0367    4.9894  -18.2502 C   0  0  0  0  0  0  0  0  0  0  0  0
   -8.2859    4.3804  -18.3852 C   0  0  0  0  0  0  0  0  0  0  0  0
   -9.0444    3.9715  -17.3445 N   0  0  0  0  0  0  0  0  0  0  0  0
   -8.5191    4.1798  -16.1163 C   0  0  0  0  0  0  0  0  0  0  0  0
   -7.2905    4.7944  -15.8870 C   0  0  0  0  0  0  0  0  0  0  0  0
   -6.7351    4.8689  -14.5199 C   0  0  0  0  0  0  0  0  0  0  0  0
   -5.6385    4.5100  -14.3462 O   0  0  0  0  0  0  0  0  0  0  0  0
   -7.8051    5.3441  -13.5114 N   0  0  0  0  0  0  0  0  0  0  0  0
   -7.7813    5.3851  -12.1135 C   0  0  0  0  0  0  0  0  0  0  0  0
   -8.2525    6.5345  -11.4663 C   0  0  0  0  0  0  0  0  0  0  0  0
   -8.3554    6.4944  -10.0762 C   0  0  0  0  0  0  0  0  0  0  0  0
   -8.0942    5.3867   -9.3532 N   0  0  0  0  0  0  0  0  0  0  0  0
   -7.6653    4.2886   -9.9863 C   0  0  0  0  0  0  0  0  0  0  0  0
   -7.4639    3.1596   -9.2248 C   0  0  0  0  0  0  0  0  0  0  0  0
   -6.9564    1.9859   -9.7755 C   0  0  0  0  0  0  0  0  0  0  0  0
   -6.6405    1.9266  -11.1165 C   0  0  0  0  0  0  0  0  0  0  0  0
   -6.9023    3.0332  -11.9081 C   0  0  0  0  0  0  0  0  0  0  0  0
   -7.4227    4.2343  -11.3687 C   0  0  0  0  0  0  0  0  0  0  0  0
   -8.6806    7.7256   -9.2683 C   0  0  0  0  0  0  0  0  0  0  0  0
   -9.3508    8.8337  -10.0714 C   0  0  0  0  0  0  0  0  0  0  0  0
   -8.6120    9.0509  -11.3832 C   0  0  0  0  0  0  0  0  0  0  0  0
   -8.6188    7.7786  -12.2303 C   0  0  0  0  0  0  0  0  0  0  0  0
   -6.5248    5.1877  -16.9766 C   0  0  0  0  0  0  0  0  0  0  0  0
  1  2  1  0
  2  3  1  0
  3  4  1  0
  4  5  1  0
  5  6  2  0
  5  7  1  0
  7  8  1  0
  8  9  2  0
  9 10  1  0
 10 11  2  0
 11 12  1  0
 12 13  1  0
 13 14  2  0
 13 15  1  0
 15 16  1  0
 16 17  2  0
 17 18  1  0
 18 19  2  0
 19 20  1  0
 20 21  2  0
 21 22  1  0
 22 23  2  0
 23 24  1  0
 24 25  2  0
 18 26  1  0
 26 27  1  0
 27 28  1  0
 28 29  1  0
 12 30  2  0
 30  8  1  0
 25 16  1  0
 29 17  1  0
 25 20  1  0
M  END
>  <name>  (11) 
P102981

>  <alias>  (11) 
None

>  <smina_score_min>  (11) 
-6.646

>  <exports>  (11) 
['/opt/xchem-fragalysis-2/maxwin/BulkDock/OUTPUTS/openbind_xx01zvns2b_c2_elabs_1LOUTNY.sdf', '/opt/xchem-fragalysis-2/maxwin/BulkDock/OUTPUTS/openbind_xx01zvns2b_c2_elabs_1LSYIIV.sdf']

>  <tags>  (11) 
syndirella_placed,openbind_xx01zvns2b_c2_elabs,openbind_xx01zvns2b_c2_elabs_scored_6.2plus,syndirella_product,openbind_xx01zvns2b_c2_elabs_scored,openbind_xx01zvns2b_c2_elabs_scored_top80percent,BulkDock Fragalysis export

>  <subsites>  (11) 
1 - Z4590/B/203/1

>  <smiles>  (11) 
CCCCC(=O)Nc1cncc(C(=O)Nc2c3c(nc4ccccc24)CCCC3)c1

>  <HIPPO Pose ID>  (11) 
102981

>  <energy_score>  (11) 
-3.679041

>  <inchikey>  (11) 
AYFVWHXKHQZBRA-UHFFFAOYSA-N

>  <gnina_score_min>  (11) 
6.206

>  <gnina_score>  (11) 
6.363

>  <ref_mols>  (11) 
Z1597a

>  <HIPPO Compound ID>  (11) 
162060

>  <distance_score>  (11) 
1.044712

>  <rmsd(smina/fragmenstein)>  (11) 
0.88

>  <ref_pdb>  (11) 
Z1597a

>  <inspiration_score>  (11) 
None

$$$$
P102984
     RDKit          3D

 30 32  0  0  0  0  0  0  0  0999 V2000
   -1.9595    8.8231  -21.1949 C   0  0  0  0  0  0  0  0  0  0  0  0
   -3.3410    8.2783  -20.8669 C   0  0  0  0  0  0  0  0  0  0  0  0
   -3.4128    6.7663  -21.0955 C   0  0  0  0  0  0  0  0  0  0  0  0
   -4.7916    6.1967  -20.7959 C   0  0  0  0  0  0  0  0  0  0  0  0
   -5.0812    6.0410  -19.3050 C   0  0  0  0  0  0  0  0  0  0  0  0
   -4.3828    6.4115  -18.4457 O   0  0  0  0  0  0  0  0  0  0  0  0
   -6.4658    5.3342  -19.2443 N   0  0  0  0  0  0  0  0  0  0  0  0
   -7.1950    4.8751  -18.1582 C   0  0  0  0  0  0  0  0  0  0  0  0
   -8.3648    4.1552  -18.3899 C   0  0  0  0  0  0  0  0  0  0  0  0
   -9.1994    3.7357  -17.4171 N   0  0  0  0  0  0  0  0  0  0  0  0
   -8.8713    4.1163  -16.1588 C   0  0  0  0  0  0  0  0  0  0  0  0
   -7.7167    4.8065  -15.8162 C   0  0  0  0  0  0  0  0  0  0  0  0
   -7.5056    5.3492  -14.4475 C   0  0  0  0  0  0  0  0  0  0  0  0
   -7.0203    6.4102  -14.3762 O   0  0  0  0  0  0  0  0  0  0  0  0
   -8.0737    4.4268  -13.3369 N   0  0  0  0  0  0  0  0  0  0  0  0
   -8.0753    4.5755  -11.9341 C   0  0  0  0  0  0  0  0  0  0  0  0
   -8.3528    3.3804  -11.2474 C   0  0  0  0  0  0  0  0  0  0  0  0
   -8.4100    3.3693   -9.8639 C   0  0  0  0  0  0  0  0  0  0  0  0
   -8.2483    4.4705   -9.1137 N   0  0  0  0  0  0  0  0  0  0  0  0
   -7.9937    5.6130   -9.7866 C   0  0  0  0  0  0  0  0  0  0  0  0
   -7.8771    5.7415  -11.1796 C   0  0  0  0  0  0  0  0  0  0  0  0
   -7.5226    7.1161  -11.6809 C   0  0  0  0  0  0  0  0  0  0  0  0
   -8.6350    7.8825  -12.4040 C   0  0  0  0  0  0  0  0  0  0  0  0
   -9.5042    8.7776  -11.4968 C   0  0  0  0  0  0  0  0  0  0  0  0
   -8.6997    9.9161  -10.8360 C   0  0  0  0  0  0  0  0  0  0  0  0
   -9.5486   11.1356  -10.4612 C   0  0  0  0  0  0  0  0  0  0  0  0
  -11.0001   10.7633  -10.1939 C   0  0  0  0  0  0  0  0  0  0  0  0
  -11.6547   10.1406  -11.4262 C   0  0  0  0  0  0  0  0  0  0  0  0
  -10.6758    9.3586  -12.3048 C   0  0  0  0  0  0  0  0  0  0  0  0
   -6.8487    5.1750  -16.8467 C   0  0  0  0  0  0  0  0  0  0  0  0
  1  2  1  0
  2  3  1  0
  3  4  1  0
  4  5  1  0
  5  6  2  0
  5  7  1  0
  7  8  1  0
  8  9  2  0
  9 10  1  0
 10 11  2  0
 11 12  1  0
 12 13  1  0
 13 14  2  0
 13 15  1  0
 15 16  1  0
 16 17  2  0
 17 18  1  0
 18 19  2  0
 19 20  1  0
 20 21  2  0
 21 22  1  0
 22 23  1  0
 23 24  1  0
 24 25  1  0
 25 26  1  0
 26 27  1  0
 27 28  1  0
 28 29  1  0
 12 30  2  0
 30  8  1  0
 21 16  1  0
 29 24  1  0
M  END
>  <name>  (12) 
P102984

>  <alias>  (12) 
None

>  <smina_score_min>  (12) 
-6.668

>  <exports>  (12) 
['/opt/xchem-fragalysis-2/maxwin/BulkDock/OUTPUTS/openbind_xx01zvns2b_c2_elabs_1LOUTNY.sdf', '/opt/xchem-fragalysis-2/maxwin/BulkDock/OUTPUTS/openbind_xx01zvns2b_c2_elabs_1LSYIIV.sdf']

>  <tags>  (12) 
syndirella_placed,openbind_xx01zvns2b_c2_elabs,openbind_xx01zvns2b_c2_elabs_scored_6.2plus,syndirella_product,openbind_xx01zvns2b_c2_elabs_scored,openbind_xx01zvns2b_c2_elabs_scored_top80percent,BulkDock Fragalysis export

>  <subsites>  (12) 
1 - Z4590/B/203/1

>  <smiles>  (12) 
CCCCC(=O)Nc1cncc(C(=O)Nc2ccncc2CCC2CCCCC2)c1

>  <HIPPO Pose ID>  (12) 
102984

>  <energy_score>  (12) 
-33.038843

>  <inchikey>  (12) 
NVNZCVSBUKMFEW-UHFFFAOYSA-N

>  <gnina_score_min>  (12) 
6.279

>  <gnina_score>  (12) 
6.441

>  <ref_mols>  (12) 
Z1597a

>  <HIPPO Compound ID>  (12) 
162064

>  <distance_score>  (12) 
0.623302

>  <rmsd(smina/fragmenstein)>  (12) 
0.765

>  <ref_pdb>  (12) 
Z1597a

>  <inspiration_score>  (12) 
None

$$$$
P102986
     RDKit          3D

 31 35  0  0  0  0  0  0  0  0999 V2000
   -8.2717    7.6629   -8.6500 C   0  0  0  0  0  0  0  0  0  0  0  0
   -7.8332    7.3498  -10.0746 C   0  0  0  0  0  0  0  0  0  0  0  0
   -6.4349    7.8991  -10.3480 C   0  0  0  0  0  0  0  0  0  0  0  0
   -8.7966    7.9056  -11.1216 C   0  0  0  0  0  0  0  0  0  0  0  0
   -8.6499    6.9884  -12.3423 C   0  0  0  0  0  0  0  0  0  0  0  0
   -8.1543    5.6946  -11.7643 C   0  0  0  0  0  0  0  0  0  0  0  0
   -7.8429    5.8772  -10.4082 C   0  0  0  0  0  0  0  0  0  0  0  0
   -7.3333    4.9514   -9.5799 N   0  0  0  0  0  0  0  0  0  0  0  0
   -7.0656    3.7911  -10.1904 C   0  0  0  0  0  0  0  0  0  0  0  0
   -7.2102    3.5415  -11.5521 C   0  0  0  0  0  0  0  0  0  0  0  0
   -7.7956    4.4958  -12.3678 C   0  0  0  0  0  0  0  0  0  0  0  0
   -7.8837    4.2413  -13.7339 N   0  0  0  0  0  0  0  0  0  0  0  0
   -8.5407    5.0489  -14.8558 C   0  0  0  0  0  0  0  0  0  0  0  0
   -9.1806    6.0180  -14.8118 O   0  0  0  0  0  0  0  0  0  0  0  0
   -8.2078    4.5413  -16.1802 C   0  0  0  0  0  0  0  0  0  0  0  0
   -9.2119    3.9482  -16.9163 C   0  0  0  0  0  0  0  0  0  0  0  0
   -9.0901    3.6380  -18.2197 N   0  0  0  0  0  0  0  0  0  0  0  0
   -7.9584    4.0677  -18.8259 C   0  0  0  0  0  0  0  0  0  0  0  0
   -6.9222    4.7404  -18.1792 C   0  0  0  0  0  0  0  0  0  0  0  0
   -5.8658    5.2867  -18.9046 N   0  0  0  0  0  0  0  0  0  0  0  0
   -4.5890    6.0380  -18.4216 C   0  0  0  0  0  0  0  0  0  0  0  0
   -4.1938    6.2433  -17.3387 O   0  0  0  0  0  0  0  0  0  0  0  0
   -3.8666    6.6413  -19.6338 C   0  0  0  0  0  0  0  0  0  0  0  0
   -3.5991    5.7201  -20.8257 C   0  0  0  0  0  0  0  0  0  0  0  0
   -4.2494    6.4004  -22.0304 C   0  0  0  0  0  0  0  0  0  0  0  0
   -4.2915    7.8702  -21.6658 C   0  0  0  0  0  0  0  0  0  0  0  0
   -4.6350    7.8396  -20.1908 C   0  0  0  0  0  0  0  0  0  0  0  0
   -7.0297    4.9358  -16.8081 C   0  0  0  0  0  0  0  0  0  0  0  0
   -6.6246    2.2103  -11.8904 C   0  0  0  0  0  0  0  0  0  0  0  0
   -5.7978    1.8747  -10.6497 C   0  0  0  0  0  0  0  0  0  0  0  0
   -6.4563    2.6179   -9.4954 C   0  0  0  0  0  0  0  0  0  0  0  0
  1  2  1  0
  2  3  1  0
  2  4  1  0
  4  5  1  0
  5  6  1  0
  6  7  2  0
  7  8  1  0
  8  9  2  0
  9 10  1  0
 10 11  2  0
 11 12  1  0
 12 13  1  0
 13 14  2  0
 13 15  1  0
 15 16  2  0
 16 17  1  0
 17 18  2  0
 18 19  1  0
 19 20  1  0
 20 21  1  0
 21 22  2  0
 21 23  1  0
 23 24  1  0
 24 25  1  0
 25 26  1  0
 26 27  1  0
 19 28  2  0
 10 29  1  0
 29 30  1  0
 30 31  1  0
  7  2  1  0
 31  9  1  0
 11  6  1  0
 28 15  1  0
 27 23  1  0
M  END
>  <name>  (13) 
P102986

>  <alias>  (13) 
None

>  <smina_score_min>  (13) 
-7.523

>  <exports>  (13) 
['/opt/xchem-fragalysis-2/maxwin/BulkDock/OUTPUTS/openbind_xx01zvns2b_c2_elabs_1LOUTNY.sdf', '/opt/xchem-fragalysis-2/maxwin/BulkDock/OUTPUTS/openbind_xx01zvns2b_c2_elabs_1LSYIIV.sdf']

>  <tags>  (13) 
syndirella_placed,openbind_xx01zvns2b_c2_elabs,openbind_xx01zvns2b_c2_elabs_scored_6.2plus,syndirella_product,openbind_xx01zvns2b_c2_elabs_scored,openbind_xx01zvns2b_c2_elabs_scored_top80percent,BulkDock Fragalysis export

>  <subsites>  (13) 
1 - Z4590/B/203/1

>  <smiles>  (13) 
CC1(C)CCc2c1nc1c(c2NC(=O)c2cncc(NC(=O)C3CCCC3)c2)CCC1

>  <HIPPO Pose ID>  (13) 
102986

>  <energy_score>  (13) 
-41.971972

>  <inchikey>  (13) 
AEPFPOLYMQQMNB-UHFFFAOYSA-N

>  <gnina_score_min>  (13) 
6.23

>  <gnina_score>  (13) 
6.581

>  <ref_mols>  (13) 
Z1597a

>  <HIPPO Compound ID>  (13) 
162066

>  <distance_score>  (13) 
1.278425

>  <rmsd(smina/fragmenstein)>  (13) 
1.47

>  <ref_pdb>  (13) 
Z1597a

>  <inspiration_score>  (13) 
None

$$$$
P102988
     RDKit          3D

 31 34  0  0  0  0  0  0  0  0999 V2000
   -6.9026    6.3536  -14.3498 O   0  0  0  0  0  0  0  0  0  0  0  0
   -7.4475    5.3240  -14.4423 C   0  0  0  0  0  0  0  0  0  0  0  0
   -8.0675    4.4139  -13.3514 N   0  0  0  0  0  0  0  0  0  0  0  0
   -8.0614    4.5338  -11.9464 C   0  0  0  0  0  0  0  0  0  0  0  0
   -8.3332    3.3279  -11.2778 C   0  0  0  0  0  0  0  0  0  0  0  0
   -8.3567    3.2890   -9.8932 C   0  0  0  0  0  0  0  0  0  0  0  0
   -8.1612    4.3721   -9.1250 N   0  0  0  0  0  0  0  0  0  0  0  0
   -7.9200    5.5255   -9.7810 C   0  0  0  0  0  0  0  0  0  0  0  0
   -7.8492    5.6857  -11.1740 C   0  0  0  0  0  0  0  0  0  0  0  0
   -7.5909    7.0926  -11.6496 C   0  0  0  0  0  0  0  0  0  0  0  0
   -8.7867    7.7608  -12.3316 C   0  0  0  0  0  0  0  0  0  0  0  0
   -9.1956    9.1413  -11.7714 C   0  0  0  0  0  0  0  0  0  0  0  0
   -9.5771    9.1153  -10.2815 C   0  0  0  0  0  0  0  0  0  0  0  0
  -10.0689   10.4783   -9.7958 C   0  0  0  0  0  0  0  0  0  0  0  0
  -11.2291   10.9947  -10.6379 C   0  0  0  0  0  0  0  0  0  0  0  0
  -10.8539   11.0513  -12.1129 C   0  0  0  0  0  0  0  0  0  0  0  0
  -10.3600    9.6987  -12.6162 C   0  0  0  0  0  0  0  0  0  0  0  0
   -7.6646    4.8126  -15.8228 C   0  0  0  0  0  0  0  0  0  0  0  0
   -8.8430    4.1964  -16.2153 C   0  0  0  0  0  0  0  0  0  0  0  0
   -9.1398    3.8568  -17.4944 N   0  0  0  0  0  0  0  0  0  0  0  0
   -8.2257    4.1995  -18.4314 C   0  0  0  0  0  0  0  0  0  0  0  0
   -7.0083    4.8080  -18.1428 C   0  0  0  0  0  0  0  0  0  0  0  0
   -6.1030    5.0850  -19.1618 N   0  0  0  0  0  0  0  0  0  0  0  0
   -4.6511    5.6554  -19.0997 C   0  0  0  0  0  0  0  0  0  0  0  0
   -3.9738    5.9042  -18.1791 O   0  0  0  0  0  0  0  0  0  0  0  0
   -4.1731    5.7598  -20.5532 C   0  0  0  0  0  0  0  0  0  0  0  0
   -4.8023    6.9656  -21.2592 C   0  0  0  0  0  0  0  0  0  0  0  0
   -3.6432    7.8065  -21.7836 C   0  0  0  0  0  0  0  0  0  0  0  0
   -2.4851    7.4591  -20.8669 C   0  0  0  0  0  0  0  0  0  0  0  0
   -2.6561    5.9625  -20.6630 C   0  0  0  0  0  0  0  0  0  0  0  0
   -6.7249    5.1078  -16.8141 C   0  0  0  0  0  0  0  0  0  0  0  0
  1  2  2  0
  2  3  1  0
  3  4  1  0
  4  5  2  0
  5  6  1  0
  6  7  2  0
  7  8  1  0
  8  9  2  0
  9 10  1  0
 10 11  1  0
 11 12  1  0
 12 13  1  0
 13 14  1  0
 14 15  1  0
 15 16  1  0
 16 17  1  0
  2 18  1  0
 18 19  2  0
 19 20  1  0
 20 21  2  0
 21 22  1  0
 22 23  1  0
 23 24  1  0
 24 25  2  0
 24 26  1  0
 26 27  1  0
 27 28  1  0
 28 29  1  0
 29 30  1  0
 22 31  2  0
  9  4  1  0
 17 12  1  0
 31 18  1  0
 30 26  1  0
M  END
>  <name>  (14) 
P102988

>  <alias>  (14) 
None

>  <smina_score_min>  (14) 
-7.719

>  <exports>  (14) 
['/opt/xchem-fragalysis-2/maxwin/BulkDock/OUTPUTS/openbind_xx01zvns2b_c2_elabs_1LOUTNY.sdf', '/opt/xchem-fragalysis-2/maxwin/BulkDock/OUTPUTS/openbind_xx01zvns2b_c2_elabs_1LSYIIV.sdf']

>  <tags>  (14) 
syndirella_placed,openbind_xx01zvns2b_c2_elabs,openbind_xx01zvns2b_c2_elabs_scored_6.2plus,syndirella_product,openbind_xx01zvns2b_c2_elabs_scored,openbind_xx01zvns2b_c2_elabs_scored_top80percent,BulkDock Fragalysis export

>  <subsites>  (14) 
1 - Z4590/B/203/1

>  <smiles>  (14) 
O=C(Nc1ccncc1CCC1CCCCC1)c1cncc(NC(=O)C2CCCC2)c1

>  <HIPPO Pose ID>  (14) 
102988

>  <energy_score>  (14) 
-30.093375

>  <inchikey>  (14) 
IFQCHTXEBGMYLW-UHFFFAOYSA-N

>  <gnina_score_min>  (14) 
6.516

>  <gnina_score>  (14) 
6.499

>  <ref_mols>  (14) 
Z1597a

>  <HIPPO Compound ID>  (14) 
162070

>  <distance_score>  (14) 
0.478282

>  <rmsd(smina/fragmenstein)>  (14) 
0.678

>  <ref_pdb>  (14) 
Z1597a

>  <inspiration_score>  (14) 
None

$$$$
P102989
     RDKit          3D

 31 33  0  0  0  0  0  0  0  0999 V2000
   -9.3209    8.4249   -9.3350 C   0  0  0  0  0  0  0  0  0  0  0  0
   -8.1767    7.4398   -9.0981 C   0  0  0  0  0  0  0  0  0  0  0  0
   -6.8137    8.1261   -9.2292 C   0  0  0  0  0  0  0  0  0  0  0  0
   -8.2363    6.1422   -9.8990 C   0  0  0  0  0  0  0  0  0  0  0  0
   -8.4004    5.0399   -9.1218 N   0  0  0  0  0  0  0  0  0  0  0  0
   -8.3482    3.8164   -9.6910 C   0  0  0  0  0  0  0  0  0  0  0  0
   -8.8948    2.3840   -8.5743 Br  0  0  0  0  0  0  0  0  0  0  0  0
   -8.0325    3.6351  -11.0232 C   0  0  0  0  0  0  0  0  0  0  0  0
   -7.5944    2.3706  -11.5055 C   0  0  0  0  0  0  0  0  0  0  0  0
   -7.1352    1.4357  -12.0127 N   0  0  0  0  0  0  0  0  0  0  0  0
   -7.9737    4.7608  -11.8687 C   0  0  0  0  0  0  0  0  0  0  0  0
   -7.8279    4.5228  -13.2615 N   0  0  0  0  0  0  0  0  0  0  0  0
   -7.2847    5.4364  -14.3855 C   0  0  0  0  0  0  0  0  0  0  0  0
   -6.8015    6.4973  -14.3304 O   0  0  0  0  0  0  0  0  0  0  0  0
   -7.5218    4.8806  -15.7478 C   0  0  0  0  0  0  0  0  0  0  0  0
   -8.7041    4.2392  -16.0953 C   0  0  0  0  0  0  0  0  0  0  0  0
   -9.0382    3.8839  -17.3614 N   0  0  0  0  0  0  0  0  0  0  0  0
   -8.1677    4.2439  -18.3332 C   0  0  0  0  0  0  0  0  0  0  0  0
   -6.9549    4.8810  -18.0899 C   0  0  0  0  0  0  0  0  0  0  0  0
   -6.1045    5.2018  -19.1408 N   0  0  0  0  0  0  0  0  0  0  0  0
   -4.6263    5.7045  -19.1307 C   0  0  0  0  0  0  0  0  0  0  0  0
   -3.9318    5.9963  -18.2362 O   0  0  0  0  0  0  0  0  0  0  0  0
   -4.1761    5.7226  -20.5940 C   0  0  0  0  0  0  0  0  0  0  0  0
   -2.6535    5.8324  -20.7650 C   0  0  0  0  0  0  0  0  0  0  0  0
   -2.4571    6.7762  -21.9410 C   0  0  0  0  0  0  0  0  0  0  0  0
   -3.5825    7.7773  -21.7646 C   0  0  0  0  0  0  0  0  0  0  0  0
   -4.7686    6.9149  -21.3535 C   0  0  0  0  0  0  0  0  0  0  0  0
   -6.6263    5.1894  -16.7732 C   0  0  0  0  0  0  0  0  0  0  0  0
   -8.1110    6.0432  -11.2949 C   0  0  0  0  0  0  0  0  0  0  0  0
   -8.2900    7.2216  -12.0871 C   0  0  0  0  0  0  0  0  0  0  0  0
   -8.5403    8.1914  -12.6756 N   0  0  0  0  0  0  0  0  0  0  0  0
  1  2  1  0
  2  3  1  0
  2  4  1  0
  4  5  2  0
  5  6  1  0
  6  7  1  0
  6  8  2  0
  8  9  1  0
  9 10  3  0
  8 11  1  0
 11 12  1  0
 12 13  1  0
 13 14  2  0
 13 15  1  0
 15 16  2  0
 16 17  1  0
 17 18  2  0
 18 19  1  0
 19 20  1  0
 20 21  1  0
 21 22  2  0
 21 23  1  0
 23 24  1  0
 24 25  1  0
 25 26  1  0
 26 27  1  0
 19 28  2  0
 11 29  2  0
 29 30  1  0
 30 31  3  0
 29  4  1  0
 28 15  1  0
 27 23  1  0
M  END
>  <name>  (15) 
P102989

>  <alias>  (15) 
None

>  <smina_score_min>  (15) 
-6.638

>  <exports>  (15) 
['/opt/xchem-fragalysis-2/maxwin/BulkDock/OUTPUTS/openbind_xx01zvns2b_c2_elabs_1LOUTNY.sdf', '/opt/xchem-fragalysis-2/maxwin/BulkDock/OUTPUTS/openbind_xx01zvns2b_c2_elabs_1LSYIIV.sdf']

>  <tags>  (15) 
syndirella_placed,openbind_xx01zvns2b_c2_elabs,openbind_xx01zvns2b_c2_elabs_scored_6.2plus,syndirella_product,openbind_xx01zvns2b_c2_elabs_scored,openbind_xx01zvns2b_c2_elabs_scored_top80percent,BulkDock Fragalysis export

>  <subsites>  (15) 
1 - Z4590/B/203/1

>  <smiles>  (15) 
CC(C)c1nc(Br)c(C#N)c(NC(=O)c2cncc(NC(=O)C3CCCC3)c2)c1C#N

>  <HIPPO Pose ID>  (15) 
102989

>  <energy_score>  (15) 
-21.384848

>  <inchikey>  (15) 
HJSVWVFLINWMNZ-UHFFFAOYSA-N

>  <gnina_score_min>  (15) 
6.664

>  <gnina_score>  (15) 
6.733

>  <ref_mols>  (15) 
Z1597a

>  <HIPPO Compound ID>  (15) 
162071

>  <distance_score>  (15) 
0.628015

>  <rmsd(smina/fragmenstein)>  (15) 
0.708

>  <ref_pdb>  (15) 
Z1597a

>  <inspiration_score>  (15) 
None

$$$$
P102991
     RDKit          3D

 31 34  0  0  0  0  0  0  0  0999 V2000
   -6.0774    0.4198  -10.1025 C   0  0  0  0  0  0  0  0  0  0  0  0
   -6.3187    1.8150  -10.5450 C   0  0  0  0  0  0  0  0  0  0  0  0
   -5.5462    2.2187  -11.6314 C   0  0  0  0  0  0  0  0  0  0  0  0
   -5.8060    3.4313  -12.2194 C   0  0  0  0  0  0  0  0  0  0  0  0
   -6.7729    4.2903  -11.6640 C   0  0  0  0  0  0  0  0  0  0  0  0
   -7.2832    5.3895  -12.3654 C   0  0  0  0  0  0  0  0  0  0  0  0
   -7.3462    5.2164  -13.7541 N   0  0  0  0  0  0  0  0  0  0  0  0
   -8.4756    5.5027  -14.7384 C   0  0  0  0  0  0  0  0  0  0  0  0
   -9.5109    6.0002  -14.5720 O   0  0  0  0  0  0  0  0  0  0  0  0
   -8.1629    4.9434  -16.0726 C   0  0  0  0  0  0  0  0  0  0  0  0
   -9.1267    4.1362  -16.6631 C   0  0  0  0  0  0  0  0  0  0  0  0
   -9.0577    3.6722  -17.9285 N   0  0  0  0  0  0  0  0  0  0  0  0
   -7.9941    4.0896  -18.6449 C   0  0  0  0  0  0  0  0  0  0  0  0
   -6.9572    4.8715  -18.1345 C   0  0  0  0  0  0  0  0  0  0  0  0
   -5.9061    5.2323  -18.9707 N   0  0  0  0  0  0  0  0  0  0  0  0
   -4.5304    5.8865  -18.6414 C   0  0  0  0  0  0  0  0  0  0  0  0
   -4.1069    6.2901  -17.6294 O   0  0  0  0  0  0  0  0  0  0  0  0
   -3.7440    5.8799  -19.9652 C   0  0  0  0  0  0  0  0  0  0  0  0
   -2.3040    6.3912  -19.8113 C   0  0  0  0  0  0  0  0  0  0  0  0
   -2.3238    7.7987  -20.3874 C   0  0  0  0  0  0  0  0  0  0  0  0
   -3.2801    7.6716  -21.5586 C   0  0  0  0  0  0  0  0  0  0  0  0
   -4.3985    6.7925  -21.0155 C   0  0  0  0  0  0  0  0  0  0  0  0
   -7.0292    5.2879  -16.8071 C   0  0  0  0  0  0  0  0  0  0  0  0
   -8.0528    6.3439  -11.7010 C   0  0  0  0  0  0  0  0  0  0  0  0
   -8.4330    7.5911  -12.2741 C   0  0  0  0  0  0  0  0  0  0  0  0
   -8.6971    8.6474  -12.6790 N   0  0  0  0  0  0  0  0  0  0  0  0
   -8.3884    6.0940  -10.3901 C   0  0  0  0  0  0  0  0  0  0  0  0
   -8.1161    4.9337   -9.7763 N   0  0  0  0  0  0  0  0  0  0  0  0
   -7.3756    4.0077  -10.4292 C   0  0  0  0  0  0  0  0  0  0  0  0
   -7.2448    2.7060   -9.9606 C   0  0  0  0  0  0  0  0  0  0  0  0
   -8.5751    2.1708   -8.6800 Br  0  0  0  0  0  0  0  0  0  0  0  0
  1  2  1  0
  2  3  2  0
  3  4  1  0
  4  5  2  0
  5  6  1  0
  6  7  1  0
  7  8  1  0
  8  9  2  0
  8 10  1  0
 10 11  2  0
 11 12  1  0
 12 13  2  0
 13 14  1  0
 14 15  1  0
 15 16  1  0
 16 17  2  0
 16 18  1  0
 18 19  1  0
 19 20  1  0
 20 21  1  0
 21 22  1  0
 14 23  2  0
  6 24  2  0
 24 25  1  0
 25 26  3  0
 24 27  1  0
 27 28  2  0
 28 29  1  0
 29 30  2  0
 30 31  1  0
 30  2  1  0
 29  5  1  0
 23 10  1  0
 22 18  1  0
M  END
>  <name>  (16) 
P102991

>  <alias>  (16) 
None

>  <smina_score_min>  (16) 
-7.176

>  <exports>  (16) 
['/opt/xchem-fragalysis-2/maxwin/BulkDock/OUTPUTS/openbind_xx01zvns2b_c2_elabs_1LOUTNY.sdf', '/opt/xchem-fragalysis-2/maxwin/BulkDock/OUTPUTS/openbind_xx01zvns2b_c2_elabs_1LSYIIV.sdf']

>  <tags>  (16) 
syndirella_placed,openbind_xx01zvns2b_c2_elabs,openbind_xx01zvns2b_c2_elabs_scored_6.2plus,syndirella_product,openbind_xx01zvns2b_c2_elabs_scored,openbind_xx01zvns2b_c2_elabs_scored_top80percent,BulkDock Fragalysis export

>  <subsites>  (16) 
1 - Z4590/B/203/1

>  <smiles>  (16) 
Cc1ccc2c(NC(=O)c3cncc(NC(=O)C4CCCC4)c3)c(C#N)cnc2c1Br

>  <HIPPO Pose ID>  (16) 
102991

>  <energy_score>  (16) 
-14.010101

>  <inchikey>  (16) 
BDHRXIGFGNSTGX-UHFFFAOYSA-N

>  <gnina_score_min>  (16) 
6.334

>  <gnina_score>  (16) 
6.254

>  <ref_mols>  (16) 
Z1597a

>  <HIPPO Compound ID>  (16) 
162073

>  <distance_score>  (16) 
1.098824

>  <rmsd(smina/fragmenstein)>  (16) 
1.041

>  <ref_pdb>  (16) 
Z1597a

>  <inspiration_score>  (16) 
None

$$$$
P102996
     RDKit          3D

 31 34  0  0  0  0  0  0  0  0999 V2000
   -5.7527    3.8689  -14.0526 O   0  0  0  0  0  0  0  0  0  0  0  0
   -6.7622    4.4188  -14.2303 C   0  0  0  0  0  0  0  0  0  0  0  0
   -7.8298    4.8848  -13.2326 N   0  0  0  0  0  0  0  0  0  0  0  0
   -7.8396    4.8593  -11.8451 C   0  0  0  0  0  0  0  0  0  0  0  0
   -7.3690    3.7247  -11.1854 C   0  0  0  0  0  0  0  0  0  0  0  0
   -7.4569    3.6867   -9.8040 C   0  0  0  0  0  0  0  0  0  0  0  0
   -7.9203    4.7165   -9.0577 N   0  0  0  0  0  0  0  0  0  0  0  0
   -8.3519    5.8088   -9.7305 C   0  0  0  0  0  0  0  0  0  0  0  0
   -8.3368    5.9310  -11.1128 C   0  0  0  0  0  0  0  0  0  0  0  0
   -8.7815    7.1696  -11.7912 C   0  0  0  0  0  0  0  0  0  0  0  0
   -9.3413    7.1035  -12.8858 O   0  0  0  0  0  0  0  0  0  0  0  0
   -8.5694    8.4978  -11.1691 C   0  0  0  0  0  0  0  0  0  0  0  0
   -7.3624    8.8164  -10.5354 C   0  0  0  0  0  0  0  0  0  0  0  0
   -7.1947   10.0771   -9.9599 C   0  0  0  0  0  0  0  0  0  0  0  0
   -8.2236   11.0175  -10.0237 C   0  0  0  0  0  0  0  0  0  0  0  0
   -9.4195   10.7057  -10.6710 C   0  0  0  0  0  0  0  0  0  0  0  0
   -9.5914    9.4490  -11.2520 C   0  0  0  0  0  0  0  0  0  0  0  0
   -7.1953    4.6537  -15.6307 C   0  0  0  0  0  0  0  0  0  0  0  0
   -8.4171    4.1673  -16.0809 C   0  0  0  0  0  0  0  0  0  0  0  0
   -8.7965    4.1642  -17.3811 N   0  0  0  0  0  0  0  0  0  0  0  0
   -7.9078    4.6768  -18.2674 C   0  0  0  0  0  0  0  0  0  0  0  0
   -6.6719    5.2143  -17.9104 C   0  0  0  0  0  0  0  0  0  0  0  0
   -5.8232    5.7834  -18.8581 N   0  0  0  0  0  0  0  0  0  0  0  0
   -4.3983    6.3980  -18.7016 C   0  0  0  0  0  0  0  0  0  0  0  0
   -3.7555    6.5884  -17.7410 O   0  0  0  0  0  0  0  0  0  0  0  0
   -3.8881    6.8833  -20.0603 C   0  0  0  0  0  0  0  0  0  0  0  0
   -3.8522    5.8683  -21.1937 C   0  0  0  0  0  0  0  0  0  0  0  0
   -3.8824    6.7470  -22.4384 C   0  0  0  0  0  0  0  0  0  0  0  0
   -4.8990    7.8146  -22.0810 C   0  0  0  0  0  0  0  0  0  0  0  0
   -4.6688    8.0826  -20.5991 C   0  0  0  0  0  0  0  0  0  0  0  0
   -6.3087    5.1788  -16.5656 C   0  0  0  0  0  0  0  0  0  0  0  0
  1  2  2  0
  2  3  1  0
  3  4  1  0
  4  5  2  0
  5  6  1  0
  6  7  2  0
  7  8  1  0
  8  9  2  0
  9 10  1  0
 10 11  2  0
 10 12  1  0
 12 13  2  0
 13 14  1  0
 14 15  2  0
 15 16  1  0
 16 17  2  0
  2 18  1  0
 18 19  2  0
 19 20  1  0
 20 21  2  0
 21 22  1  0
 22 23  1  0
 23 24  1  0
 24 25  2  0
 24 26  1  0
 26 27  1  0
 27 28  1  0
 28 29  1  0
 29 30  1  0
 22 31  2  0
  9  4  1  0
 17 12  1  0
 31 18  1  0
 30 26  1  0
M  END
>  <name>  (17) 
P102996

>  <alias>  (17) 
None

>  <smina_score_min>  (17) 
-6.906

>  <exports>  (17) 
['/opt/xchem-fragalysis-2/maxwin/BulkDock/OUTPUTS/openbind_xx01zvns2b_c2_elabs_1LOUTNY.sdf', '/opt/xchem-fragalysis-2/maxwin/BulkDock/OUTPUTS/openbind_xx01zvns2b_c2_elabs_1LSYIIV.sdf']

>  <tags>  (17) 
syndirella_placed,openbind_xx01zvns2b_c2_elabs,openbind_xx01zvns2b_c2_elabs_scored_6.2plus,syndirella_product,openbind_xx01zvns2b_c2_elabs_scored,openbind_xx01zvns2b_c2_elabs_scored_top80percent,BulkDock Fragalysis export

>  <subsites>  (17) 
1 - Z4590/B/203/1

>  <smiles>  (17) 
O=C(Nc1ccncc1C(=O)c1ccccc1)c1cncc(NC(=O)C2CCCC2)c1

>  <HIPPO Pose ID>  (17) 
102996

>  <energy_score>  (17) 
-9.632381

>  <inchikey>  (17) 
BVVWMBMWKWCQDR-UHFFFAOYSA-N

>  <gnina_score_min>  (17) 
6.414

>  <gnina_score>  (17) 
6.197

>  <ref_mols>  (17) 
Z1597a

>  <HIPPO Compound ID>  (17) 
162079

>  <distance_score>  (17) 
1.01639

>  <rmsd(smina/fragmenstein)>  (17) 
1.802

>  <ref_pdb>  (17) 
Z1597a

>  <inspiration_score>  (17) 
None

$$$$
P102997
     RDKit          3D

 31 35  0  0  0  0  0  0  0  0999 V2000
   -6.1983    3.9703  -13.9502 O   0  0  0  0  0  0  0  0  0  0  0  0
   -7.0271    4.7315  -14.2523 C   0  0  0  0  0  0  0  0  0  0  0  0
   -7.8720    5.6886  -13.3831 N   0  0  0  0  0  0  0  0  0  0  0  0
   -7.9369    5.8355  -11.9898 C   0  0  0  0  0  0  0  0  0  0  0  0
   -7.8773    7.1039  -11.4193 C   0  0  0  0  0  0  0  0  0  0  0  0
   -7.8435    7.1797  -10.0215 C   0  0  0  0  0  0  0  0  0  0  0  0
   -7.8671    6.0994   -9.2097 N   0  0  0  0  0  0  0  0  0  0  0  0
   -8.0673    4.9039   -9.7579 C   0  0  0  0  0  0  0  0  0  0  0  0
   -8.3311    3.8559   -8.8982 C   0  0  0  0  0  0  0  0  0  0  0  0
   -8.8071    2.6557   -9.3913 C   0  0  0  0  0  0  0  0  0  0  0  0
   -8.9578    2.5119  -10.7613 C   0  0  0  0  0  0  0  0  0  0  0  0
   -8.5305    3.4818  -11.6466 C   0  0  0  0  0  0  0  0  0  0  0  0
   -8.1201    4.7168  -11.1556 C   0  0  0  0  0  0  0  0  0  0  0  0
   -7.7301    8.5035   -9.3078 C   0  0  0  0  0  0  0  0  0  0  0  0
   -8.1592    9.6860  -10.1685 C   0  0  0  0  0  0  0  0  0  0  0  0
   -7.4665    9.6146  -11.5212 C   0  0  0  0  0  0  0  0  0  0  0  0
   -7.8725    8.3446  -12.2678 C   0  0  0  0  0  0  0  0  0  0  0  0
   -7.4458    4.7608  -15.6690 C   0  0  0  0  0  0  0  0  0  0  0  0
   -8.6900    4.2607  -16.0252 C   0  0  0  0  0  0  0  0  0  0  0  0
   -9.1125    4.1225  -17.3056 N   0  0  0  0  0  0  0  0  0  0  0  0
   -8.2382    4.4973  -18.2679 C   0  0  0  0  0  0  0  0  0  0  0  0
   -6.9624    4.9952  -18.0078 C   0  0  0  0  0  0  0  0  0  0  0  0
   -6.1168    5.3278  -19.0610 N   0  0  0  0  0  0  0  0  0  0  0  0
   -4.5938    5.6679  -19.0682 C   0  0  0  0  0  0  0  0  0  0  0  0
   -3.8419    5.7943  -18.1815 O   0  0  0  0  0  0  0  0  0  0  0  0
   -4.1850    5.7658  -20.5443 C   0  0  0  0  0  0  0  0  0  0  0  0
   -2.6627    5.8355  -20.7284 C   0  0  0  0  0  0  0  0  0  0  0  0
   -2.3683    7.3165  -20.9043 C   0  0  0  0  0  0  0  0  0  0  0  0
   -3.5329    7.7904  -21.7536 C   0  0  0  0  0  0  0  0  0  0  0  0
   -4.7370    7.0412  -21.1924 C   0  0  0  0  0  0  0  0  0  0  0  0
   -6.5569    5.1166  -16.6794 C   0  0  0  0  0  0  0  0  0  0  0  0
  1  2  2  0
  2  3  1  0
  3  4  1  0
  4  5  2  0
  5  6  1  0
  6  7  2  0
  7  8  1  0
  8  9  2  0
  9 10  1  0
 10 11  2  0
 11 12  1  0
 12 13  2  0
  6 14  1  0
 14 15  1  0
 15 16  1  0
 16 17  1  0
  2 18  1  0
 18 19  2  0
 19 20  1  0
 20 21  2  0
 21 22  1  0
 22 23  1  0
 23 24  1  0
 24 25  2  0
 24 26  1  0
 26 27  1  0
 27 28  1  0
 28 29  1  0
 29 30  1  0
 22 31  2  0
 13  4  1  0
 31 18  1  0
 17  5  1  0
 30 26  1  0
 13  8  1  0
M  END
>  <name>  (18) 
P102997

>  <alias>  (18) 
None

>  <smina_score_min>  (18) 
-8.039

>  <exports>  (18) 
['/opt/xchem-fragalysis-2/maxwin/BulkDock/OUTPUTS/openbind_xx01zvns2b_c2_elabs_1LOUTNY.sdf', '/opt/xchem-fragalysis-2/maxwin/BulkDock/OUTPUTS/openbind_xx01zvns2b_c2_elabs_1LSYIIV.sdf']

>  <tags>  (18) 
syndirella_placed,openbind_xx01zvns2b_c2_elabs,openbind_xx01zvns2b_c2_elabs_scored_6.2plus,syndirella_product,openbind_xx01zvns2b_c2_elabs_scored,openbind_xx01zvns2b_c2_elabs_scored_top80percent,BulkDock Fragalysis export

>  <subsites>  (18) 
1 - Z4590/B/203/1

>  <smiles>  (18) 
O=C(Nc1c2c(nc3ccccc13)CCCC2)c1cncc(NC(=O)C2CCCC2)c1

>  <HIPPO Pose ID>  (18) 
102997

>  <energy_score>  (18) 
-0.288747

>  <inchikey>  (18) 
FKBGDIPRTLXPMO-UHFFFAOYSA-N

>  <gnina_score_min>  (18) 
6.283

>  <gnina_score>  (18) 
6.359

>  <ref_mols>  (18) 
Z1597a

>  <HIPPO Compound ID>  (18) 
162080

>  <distance_score>  (18) 
1.184055

>  <rmsd(smina/fragmenstein)>  (18) 
0.475

>  <ref_pdb>  (18) 
Z1597a

>  <inspiration_score>  (18) 
None

$$$$
P103002
     RDKit          3D

 31 34  0  0  0  0  0  0  0  0999 V2000
   -2.1824    5.2018  -19.4002 C   0  0  0  0  0  0  0  0  0  0  0  0
   -2.7802    5.3579  -20.7881 C   0  0  0  0  0  0  0  0  0  0  0  0
   -3.3947    6.7402  -21.0541 C   0  0  0  0  0  0  0  0  0  0  0  0
   -4.9063    6.7923  -20.8328 C   0  0  0  0  0  0  0  0  0  0  0  0
   -5.2730    6.6181  -19.3665 C   0  0  0  0  0  0  0  0  0  0  0  0
   -4.7029    7.1710  -18.5083 O   0  0  0  0  0  0  0  0  0  0  0  0
   -6.3983    5.5498  -19.3018 N   0  0  0  0  0  0  0  0  0  0  0  0
   -7.0863    5.0343  -18.2165 C   0  0  0  0  0  0  0  0  0  0  0  0
   -8.1839    4.2092  -18.4349 C   0  0  0  0  0  0  0  0  0  0  0  0
   -8.9939    3.7644  -17.4535 N   0  0  0  0  0  0  0  0  0  0  0  0
   -8.6989    4.1889  -16.1985 C   0  0  0  0  0  0  0  0  0  0  0  0
   -7.6059    4.9809  -15.8557 C   0  0  0  0  0  0  0  0  0  0  0  0
   -7.2897    5.5048  -14.4779 C   0  0  0  0  0  0  0  0  0  0  0  0
   -6.3957    6.2537  -14.3925 O   0  0  0  0  0  0  0  0  0  0  0  0
   -8.2345    4.9478  -13.3919 N   0  0  0  0  0  0  0  0  0  0  0  0
   -8.2212    5.1127  -12.0086 C   0  0  0  0  0  0  0  0  0  0  0  0
   -8.1670    3.9560  -11.2463 C   0  0  0  0  0  0  0  0  0  0  0  0
   -8.2003    4.0649   -9.8645 C   0  0  0  0  0  0  0  0  0  0  0  0
   -8.2789    5.2378   -9.2116 N   0  0  0  0  0  0  0  0  0  0  0  0
   -8.3140    6.3585   -9.9483 C   0  0  0  0  0  0  0  0  0  0  0  0
   -8.4419    7.5667   -9.2792 C   0  0  0  0  0  0  0  0  0  0  0  0
   -8.5265    8.7860   -9.9593 C   0  0  0  0  0  0  0  0  0  0  0  0
   -8.4716    8.8010  -11.3444 C   0  0  0  0  0  0  0  0  0  0  0  0
   -8.3421    7.6005  -12.0423 C   0  0  0  0  0  0  0  0  0  0  0  0
   -8.2657    6.3640  -11.3657 C   0  0  0  0  0  0  0  0  0  0  0  0
   -8.0463    2.7871   -9.0906 C   0  0  0  0  0  0  0  0  0  0  0  0
   -6.8352    2.0288   -9.6748 C   0  0  0  0  0  0  0  0  0  0  0  0
   -6.7749    1.9273  -11.1556 N   0  0  0  0  0  0  0  0  0  0  0  0
   -5.4962    2.4214  -11.6644 C   0  0  0  0  0  0  0  0  0  0  0  0
   -7.9232    2.5837  -11.7890 C   0  0  0  0  0  0  0  0  0  0  0  0
   -6.7748    5.3845  -16.9088 C   0  0  0  0  0  0  0  0  0  0  0  0
  1  2  1  0
  2  3  1  0
  3  4  1  0
  4  5  1  0
  5  6  2  0
  5  7  1  0
  7  8  1  0
  8  9  2  0
  9 10  1  0
 10 11  2  0
 11 12  1  0
 12 13  1  0
 13 14  2  0
 13 15  1  0
 15 16  1  0
 16 17  2  0
 17 18  1  0
 18 19  2  0
 19 20  1  0
 20 21  2  0
 21 22  1  0
 22 23  2  0
 23 24  1  0
 24 25  2  0
 18 26  1  0
 26 27  1  0
 27 28  1  0
 28 29  1  0
 28 30  1  0
 12 31  2  0
 31  8  1  0
 25 16  1  0
 30 17  1  0
 25 20  1  0
M  END
>  <name>  (19) 
P103002

>  <alias>  (19) 
None

>  <smina_score_min>  (19) 
-7.397

>  <exports>  (19) 
['/opt/xchem-fragalysis-2/maxwin/BulkDock/OUTPUTS/openbind_xx01zvns2b_c2_elabs_1LOUTNY.sdf', '/opt/xchem-fragalysis-2/maxwin/BulkDock/OUTPUTS/openbind_xx01zvns2b_c2_elabs_1LSYIIV.sdf']

>  <tags>  (19) 
syndirella_placed,openbind_xx01zvns2b_c2_elabs,openbind_xx01zvns2b_c2_elabs_scored_6.2plus,syndirella_product,openbind_xx01zvns2b_c2_elabs_scored,openbind_xx01zvns2b_c2_elabs_scored_top80percent,BulkDock Fragalysis export

>  <subsites>  (19) 
1 - Z4590/B/203/1

>  <smiles>  (19) 
CCCCC(=O)Nc1cncc(C(=O)Nc2c3c(nc4ccccc24)CCN(C)C3)c1

>  <HIPPO Pose ID>  (19) 
103002

>  <energy_score>  (19) 
-21.936726

>  <inchikey>  (19) 
GQGYFURDTLBVSA-UHFFFAOYSA-N

>  <gnina_score_min>  (19) 
6.506

>  <gnina_score>  (19) 
6.587

>  <ref_mols>  (19) 
Z1597a

>  <HIPPO Compound ID>  (19) 
162088

>  <distance_score>  (19) 
0.933346

>  <rmsd(smina/fragmenstein)>  (19) 
0.665

>  <ref_pdb>  (19) 
Z1597a

>  <inspiration_score>  (19) 
None

$$$$
P103003
     RDKit          3D

 31 34  0  0  0  0  0  0  0  0999 V2000
   -2.0804    7.7784  -20.7955 C   0  0  0  0  0  0  0  0  0  0  0  0
   -3.5353    8.0761  -20.4681 C   0  0  0  0  0  0  0  0  0  0  0  0
   -4.5264    7.1468  -21.1746 C   0  0  0  0  0  0  0  0  0  0  0  0
   -4.3939    5.6733  -20.8259 C   0  0  0  0  0  0  0  0  0  0  0  0
   -4.7329    5.3931  -19.3713 C   0  0  0  0  0  0  0  0  0  0  0  0
   -3.9257    5.4186  -18.5255 O   0  0  0  0  0  0  0  0  0  0  0  0
   -6.2500    5.0470  -19.3078 N   0  0  0  0  0  0  0  0  0  0  0  0
   -7.0644    4.7671  -18.2214 C   0  0  0  0  0  0  0  0  0  0  0  0
   -8.3124    4.1800  -18.4015 C   0  0  0  0  0  0  0  0  0  0  0  0
   -9.1488    3.8603  -17.3869 N   0  0  0  0  0  0  0  0  0  0  0  0
   -8.7489    4.2250  -16.1426 C   0  0  0  0  0  0  0  0  0  0  0  0
   -7.5331    4.8348  -15.8697 C   0  0  0  0  0  0  0  0  0  0  0  0
   -7.2217    5.4271  -14.5495 C   0  0  0  0  0  0  0  0  0  0  0  0
   -6.7641    6.5022  -14.5537 O   0  0  0  0  0  0  0  0  0  0  0  0
   -7.6040    4.5056  -13.3688 N   0  0  0  0  0  0  0  0  0  0  0  0
   -7.5921    4.7434  -11.9880 C   0  0  0  0  0  0  0  0  0  0  0  0
   -6.9511    3.7672  -11.2150 C   0  0  0  0  0  0  0  0  0  0  0  0
   -6.4528    4.1959   -9.9945 C   0  0  0  0  0  0  0  0  0  0  0  0
   -6.7697    5.3784   -9.4291 N   0  0  0  0  0  0  0  0  0  0  0  0
   -7.5131    6.2434  -10.1113 C   0  0  0  0  0  0  0  0  0  0  0  0
   -7.7870    7.4373   -9.4574 C   0  0  0  0  0  0  0  0  0  0  0  0
   -8.5080    8.4615  -10.0563 C   0  0  0  0  0  0  0  0  0  0  0  0
   -8.9928    8.2699  -11.3349 C   0  0  0  0  0  0  0  0  0  0  0  0
   -8.7497    7.0581  -11.9987 C   0  0  0  0  0  0  0  0  0  0  0  0
   -9.6742    6.8415  -13.4455 Cl  0  0  0  0  0  0  0  0  0  0  0  0
   -7.9576    6.0146  -11.4266 C   0  0  0  0  0  0  0  0  0  0  0  0
   -5.3426    3.4689   -9.2890 C   0  0  0  0  0  0  0  0  0  0  0  0
   -4.8594    2.1983   -9.9757 C   0  0  0  0  0  0  0  0  0  0  0  0
   -6.0217    1.4887  -10.6435 C   0  0  0  0  0  0  0  0  0  0  0  0
   -6.6090    2.3940  -11.7266 C   0  0  0  0  0  0  0  0  0  0  0  0
   -6.6650    5.0833  -16.9312 C   0  0  0  0  0  0  0  0  0  0  0  0
  1  2  1  0
  2  3  1  0
  3  4  1  0
  4  5  1  0
  5  6  2  0
  5  7  1  0
  7  8  1  0
  8  9  2  0
  9 10  1  0
 10 11  2  0
 11 12  1  0
 12 13  1  0
 13 14  2  0
 13 15  1  0
 15 16  1  0
 16 17  2  0
 17 18  1  0
 18 19  2  0
 19 20  1  0
 20 21  2  0
 21 22  1  0
 22 23  2  0
 23 24  1  0
 24 25  1  0
 24 26  2  0
 18 27  1  0
 27 28  1  0
 28 29  1  0
 29 30  1  0
 12 31  2  0
 31  8  1  0
 26 16  1  0
 30 17  1  0
 26 20  1  0
M  END
>  <name>  (20) 
P103003

>  <alias>  (20) 
None

>  <smina_score_min>  (20) 
-6.575

>  <exports>  (20) 
['/opt/xchem-fragalysis-2/maxwin/BulkDock/OUTPUTS/openbind_xx01zvns2b_c2_elabs_1LOUTNY.sdf', '/opt/xchem-fragalysis-2/maxwin/BulkDock/OUTPUTS/openbind_xx01zvns2b_c2_elabs_1LSYIIV.sdf']

>  <tags>  (20) 
syndirella_placed,openbind_xx01zvns2b_c2_elabs,openbind_xx01zvns2b_c2_elabs_scored_6.2plus,syndirella_product,openbind_xx01zvns2b_c2_elabs_scored,openbind_xx01zvns2b_c2_elabs_scored_top80percent,BulkDock Fragalysis export

>  <subsites>  (20) 
1 - Z4590/B/203/1

>  <smiles>  (20) 
CCCCC(=O)Nc1cncc(C(=O)Nc2c3c(nc4cccc(Cl)c24)CCCC3)c1

>  <HIPPO Pose ID>  (20) 
103003

>  <energy_score>  (20) 
-9.750288

>  <inchikey>  (20) 
WYYIPCIEHLSOPF-UHFFFAOYSA-N

>  <gnina_score_min>  (20) 
6.544

>  <gnina_score>  (20) 
6.744

>  <ref_mols>  (20) 
Z1597a

>  <HIPPO Compound ID>  (20) 
162089

>  <distance_score>  (20) 
0.909158

>  <rmsd(smina/fragmenstein)>  (20) 
0.535

>  <ref_pdb>  (20) 
Z1597a

>  <inspiration_score>  (20) 
None

$$$$
P103006
     RDKit          3D

 31 35  0  0  0  0  0  0  0  0999 V2000
   -8.7348   10.0719  -12.2236 C   0  0  0  0  0  0  0  0  0  0  0  0
   -8.5288    8.7883  -11.4823 C   0  0  0  0  0  0  0  0  0  0  0  0
   -8.4613    7.5659  -12.1605 C   0  0  0  0  0  0  0  0  0  0  0  0
   -8.2776    6.3355  -11.4850 C   0  0  0  0  0  0  0  0  0  0  0  0
   -8.1976    5.0662  -12.1104 C   0  0  0  0  0  0  0  0  0  0  0  0
   -8.1579    4.8484  -13.4976 N   0  0  0  0  0  0  0  0  0  0  0  0
   -7.4771    5.6579  -14.6201 C   0  0  0  0  0  0  0  0  0  0  0  0
   -6.9066    6.6752  -14.5798 O   0  0  0  0  0  0  0  0  0  0  0  0
   -7.6347    5.0134  -15.9575 C   0  0  0  0  0  0  0  0  0  0  0  0
   -8.7686    4.3018  -16.3333 C   0  0  0  0  0  0  0  0  0  0  0  0
   -9.0072    3.8584  -17.5921 N   0  0  0  0  0  0  0  0  0  0  0  0
   -8.0847    4.1877  -18.5265 C   0  0  0  0  0  0  0  0  0  0  0  0
   -6.9053    4.8728  -18.2506 C   0  0  0  0  0  0  0  0  0  0  0  0
   -6.0013    5.1638  -19.2665 N   0  0  0  0  0  0  0  0  0  0  0  0
   -4.5685    5.7228  -19.2003 C   0  0  0  0  0  0  0  0  0  0  0  0
   -3.8906    5.9558  -18.2826 O   0  0  0  0  0  0  0  0  0  0  0  0
   -4.0069    5.8780  -20.5717 C   0  0  0  0  0  0  0  0  0  0  0  0
   -4.6779    6.7510  -21.6009 C   0  0  0  0  0  0  0  0  0  0  0  0
   -3.3890    7.1966  -20.9798 C   0  0  0  0  0  0  0  0  0  0  0  0
   -6.6750    5.2728  -16.9394 C   0  0  0  0  0  0  0  0  0  0  0  0
   -8.1300    3.9275  -11.3123 C   0  0  0  0  0  0  0  0  0  0  0  0
   -8.1168    4.0792   -9.9302 C   0  0  0  0  0  0  0  0  0  0  0  0
   -8.1603    5.2694   -9.3089 N   0  0  0  0  0  0  0  0  0  0  0  0
   -8.2436    6.3655  -10.0673 C   0  0  0  0  0  0  0  0  0  0  0  0
   -8.3274    7.5773   -9.4029 C   0  0  0  0  0  0  0  0  0  0  0  0
   -8.4613    8.7713  -10.0970 C   0  0  0  0  0  0  0  0  0  0  0  0
   -8.5377    9.9208   -9.4112 F   0  0  0  0  0  0  0  0  0  0  0  0
   -7.9599    2.8419   -9.0950 C   0  0  0  0  0  0  0  0  0  0  0  0
   -6.7783    2.0180   -9.6248 C   0  0  0  0  0  0  0  0  0  0  0  0
   -6.7083    1.9268  -11.1515 C   0  0  0  0  0  0  0  0  0  0  0  0
   -7.9387    2.5307  -11.8163 C   0  0  0  0  0  0  0  0  0  0  0  0
  1  2  1  0
  2  3  2  0
  3  4  1  0
  4  5  2  0
  5  6  1  0
  6  7  1  0
  7  8  2  0
  7  9  1  0
  9 10  2  0
 10 11  1  0
 11 12  2  0
 12 13  1  0
 13 14  1  0
 14 15  1  0
 15 16  2  0
 15 17  1  0
 17 18  1  0
 18 19  1  0
 13 20  2  0
  5 21  1  0
 21 22  2  0
 22 23  1  0
 23 24  2  0
 24 25  1  0
 25 26  2  0
 26 27  1  0
 22 28  1  0
 28 29  1  0
 29 30  1  0
 30 31  1  0
 26  2  1  0
 24  4  1  0
 20  9  1  0
 31 21  1  0
 19 17  1  0
M  END
>  <name>  (21) 
P103006

>  <alias>  (21) 
None

>  <smina_score_min>  (21) 
-7.546

>  <exports>  (21) 
['/opt/xchem-fragalysis-2/maxwin/BulkDock/OUTPUTS/openbind_xx01zvns2b_c2_elabs_1LOUTNY.sdf', '/opt/xchem-fragalysis-2/maxwin/BulkDock/OUTPUTS/openbind_xx01zvns2b_c2_elabs_1LSYIIV.sdf']

>  <tags>  (21) 
syndirella_placed,openbind_xx01zvns2b_c2_elabs,openbind_xx01zvns2b_c2_elabs_scored_6.2plus,syndirella_product,openbind_xx01zvns2b_c2_elabs_scored,openbind_xx01zvns2b_c2_elabs_scored_top80percent,BulkDock Fragalysis export

>  <subsites>  (21) 
1 - Z4590/B/203/1

>  <smiles>  (21) 
Cc1cc2c(NC(=O)c3cncc(NC(=O)C4CC4)c3)c3c(nc2cc1F)CCCC3

>  <HIPPO Pose ID>  (21) 
103006

>  <energy_score>  (21) 
-24.515349

>  <inchikey>  (21) 
CPVHBUNCFCJPLL-UHFFFAOYSA-N

>  <gnina_score_min>  (21) 
6.396

>  <gnina_score>  (21) 
6.471

>  <ref_mols>  (21) 
Z1597a

>  <HIPPO Compound ID>  (21) 
162094

>  <distance_score>  (21) 
0.734221

>  <rmsd(smina/fragmenstein)>  (21) 
0.804

>  <ref_pdb>  (21) 
Z1597a

>  <inspiration_score>  (21) 
None

$$$$
P103008
     RDKit          3D

 31 35  0  0  0  0  0  0  0  0999 V2000
   -8.6138   10.2089  -13.1813 C   0  0  0  0  0  0  0  0  0  0  0  0
   -8.6690   10.0628  -11.7714 O   0  0  0  0  0  0  0  0  0  0  0  0
   -8.5287    8.7969  -11.2754 C   0  0  0  0  0  0  0  0  0  0  0  0
   -8.5063    8.7267   -9.8908 C   0  0  0  0  0  0  0  0  0  0  0  0
   -8.3773    7.4937   -9.2591 C   0  0  0  0  0  0  0  0  0  0  0  0
   -8.2614    6.3156   -9.9757 C   0  0  0  0  0  0  0  0  0  0  0  0
   -8.1909    5.1967   -9.2522 N   0  0  0  0  0  0  0  0  0  0  0  0
   -8.1208    4.0310   -9.9104 C   0  0  0  0  0  0  0  0  0  0  0  0
   -8.0929    3.9303  -11.2952 C   0  0  0  0  0  0  0  0  0  0  0  0
   -8.1656    5.0963  -12.0588 C   0  0  0  0  0  0  0  0  0  0  0  0
   -8.1461    4.8956  -13.4498 N   0  0  0  0  0  0  0  0  0  0  0  0
   -7.4901    5.7247  -14.5729 C   0  0  0  0  0  0  0  0  0  0  0  0
   -6.9277    6.7462  -14.5292 O   0  0  0  0  0  0  0  0  0  0  0  0
   -7.6565    5.0726  -15.9111 C   0  0  0  0  0  0  0  0  0  0  0  0
   -8.7824    4.3321  -16.2588 C   0  0  0  0  0  0  0  0  0  0  0  0
   -9.0319    3.8537  -17.5018 N   0  0  0  0  0  0  0  0  0  0  0  0
   -8.1278    4.1718  -18.4553 C   0  0  0  0  0  0  0  0  0  0  0  0
   -6.9602    4.8899  -18.2117 C   0  0  0  0  0  0  0  0  0  0  0  0
   -6.0855    5.1622  -19.2572 N   0  0  0  0  0  0  0  0  0  0  0  0
   -4.6763    5.7769  -19.2462 C   0  0  0  0  0  0  0  0  0  0  0  0
   -3.9929    6.0822  -18.3545 O   0  0  0  0  0  0  0  0  0  0  0  0
   -4.1476    5.8727  -20.6362 C   0  0  0  0  0  0  0  0  0  0  0  0
   -3.5482    7.1698  -21.1219 C   0  0  0  0  0  0  0  0  0  0  0  0
   -4.8479    6.6933  -21.6919 C   0  0  0  0  0  0  0  0  0  0  0  0
   -6.7173    5.3297  -16.9137 C   0  0  0  0  0  0  0  0  0  0  0  0
   -8.2598    6.3478  -11.3942 C   0  0  0  0  0  0  0  0  0  0  0  0
   -8.4245    7.6148  -12.0164 C   0  0  0  0  0  0  0  0  0  0  0  0
   -7.8712    2.5530  -11.8429 C   0  0  0  0  0  0  0  0  0  0  0  0
   -6.6713    1.9159  -11.1528 C   0  0  0  0  0  0  0  0  0  0  0  0
   -6.7794    1.9771   -9.6273 C   0  0  0  0  0  0  0  0  0  0  0  0
   -7.9898    2.7662   -9.1146 C   0  0  0  0  0  0  0  0  0  0  0  0
  1  2  1  0
  2  3  1  0
  3  4  2  0
  4  5  1  0
  5  6  2  0
  6  7  1  0
  7  8  2  0
  8  9  1  0
  9 10  2  0
 10 11  1  0
 11 12  1  0
 12 13  2  0
 12 14  1  0
 14 15  2  0
 15 16  1  0
 16 17  2  0
 17 18  1  0
 18 19  1  0
 19 20  1  0
 20 21  2  0
 20 22  1  0
 22 23  1  0
 23 24  1  0
 18 25  2  0
 10 26  1  0
 26 27  2  0
  9 28  1  0
 28 29  1  0
 29 30  1  0
 30 31  1  0
 27  3  1  0
 26  6  1  0
 31  8  1  0
 25 14  1  0
 24 22  1  0
M  END
>  <name>  (22) 
P103008

>  <alias>  (22) 
None

>  <smina_score_min>  (22) 
-7.165

>  <exports>  (22) 
['/opt/xchem-fragalysis-2/maxwin/BulkDock/OUTPUTS/openbind_xx01zvns2b_c2_elabs_1LOUTNY.sdf', '/opt/xchem-fragalysis-2/maxwin/BulkDock/OUTPUTS/openbind_xx01zvns2b_c2_elabs_1LSYIIV.sdf']

>  <tags>  (22) 
syndirella_placed,openbind_xx01zvns2b_c2_elabs,openbind_xx01zvns2b_c2_elabs_scored_6.2plus,syndirella_product,openbind_xx01zvns2b_c2_elabs_scored,openbind_xx01zvns2b_c2_elabs_scored_top80percent,BulkDock Fragalysis export

>  <subsites>  (22) 
1 - Z4590/B/203/1

>  <smiles>  (22) 
COc1ccc2nc3c(c(NC(=O)c4cncc(NC(=O)C5CC5)c4)c2c1)CCCC3

>  <HIPPO Pose ID>  (22) 
103008

>  <energy_score>  (22) 
-24.629431

>  <inchikey>  (22) 
DRLOCTLKSRLEQS-UHFFFAOYSA-N

>  <gnina_score_min>  (22) 
6.277

>  <gnina_score>  (22) 
6.348

>  <ref_mols>  (22) 
Z1597a

>  <HIPPO Compound ID>  (22) 
162096

>  <distance_score>  (22) 
0.746538

>  <rmsd(smina/fragmenstein)>  (22) 
0.859

>  <ref_pdb>  (22) 
Z1597a

>  <inspiration_score>  (22) 
None

$$$$
P103010
     RDKit          3D

 31 34  0  0  0  0  0  0  0  0999 V2000
   -9.3568    8.0916  -12.6420 C   0  0  0  0  0  0  0  0  0  0  0  0
   -8.1234    7.6735  -11.8967 C   0  0  0  0  0  0  0  0  0  0  0  0
   -7.2143    8.4540  -11.6235 O   0  0  0  0  0  0  0  0  0  0  0  0
   -8.1120    6.3487  -11.2798 C   0  0  0  0  0  0  0  0  0  0  0  0
   -8.4941    6.3731   -9.9470 C   0  0  0  0  0  0  0  0  0  0  0  0
   -8.6174    5.2797   -9.1779 N   0  0  0  0  0  0  0  0  0  0  0  0
   -8.2070    4.1264   -9.6979 C   0  0  0  0  0  0  0  0  0  0  0  0
   -8.2722    3.0189   -8.8934 C   0  0  0  0  0  0  0  0  0  0  0  0
   -7.5829    1.8730   -9.2465 C   0  0  0  0  0  0  0  0  0  0  0  0
   -6.7876    1.8644  -10.3772 C   0  0  0  0  0  0  0  0  0  0  0  0
   -5.4315    0.5768  -10.5385 Br  0  0  0  0  0  0  0  0  0  0  0  0
   -6.9087    2.8710  -11.3153 C   0  0  0  0  0  0  0  0  0  0  0  0
   -7.6592    4.0169  -10.9964 C   0  0  0  0  0  0  0  0  0  0  0  0
   -7.7649    5.1278  -11.8567 C   0  0  0  0  0  0  0  0  0  0  0  0
   -7.5731    4.8905  -13.2316 N   0  0  0  0  0  0  0  0  0  0  0  0
   -7.3135    5.8668  -14.3843 C   0  0  0  0  0  0  0  0  0  0  0  0
   -7.1398    7.0165  -14.3738 O   0  0  0  0  0  0  0  0  0  0  0  0
   -7.3686    5.2035  -15.7129 C   0  0  0  0  0  0  0  0  0  0  0  0
   -8.4025    4.3632  -16.1030 C   0  0  0  0  0  0  0  0  0  0  0  0
   -8.5504    3.8975  -17.3706 N   0  0  0  0  0  0  0  0  0  0  0  0
   -7.6479    4.3307  -18.2941 C   0  0  0  0  0  0  0  0  0  0  0  0
   -6.5865    5.1810  -17.9990 C   0  0  0  0  0  0  0  0  0  0  0  0
   -5.6854    5.6362  -18.9627 N   0  0  0  0  0  0  0  0  0  0  0  0
   -4.5901    6.7398  -18.8810 C   0  0  0  0  0  0  0  0  0  0  0  0
   -4.2253    7.3808  -17.9710 O   0  0  0  0  0  0  0  0  0  0  0  0
   -3.8547    6.8826  -20.2130 C   0  0  0  0  0  0  0  0  0  0  0  0
   -2.8819    5.7521  -20.5112 C   0  0  0  0  0  0  0  0  0  0  0  0
   -2.3914    6.1028  -21.9129 C   0  0  0  0  0  0  0  0  0  0  0  0
   -3.5445    6.8650  -22.5790 C   0  0  0  0  0  0  0  0  0  0  0  0
   -4.6328    7.0018  -21.5112 C   0  0  0  0  0  0  0  0  0  0  0  0
   -6.4497    5.6044  -16.6808 C   0  0  0  0  0  0  0  0  0  0  0  0
  1  2  1  0
  2  3  2  0
  2  4  1  0
  4  5  2  0
  5  6  1  0
  6  7  2  0
  7  8  1  0
  8  9  2  0
  9 10  1  0
 10 11  1  0
 10 12  2  0
 12 13  1  0
 13 14  2  0
 14 15  1  0
 15 16  1  0
 16 17  2  0
 16 18  1  0
 18 19  2  0
 19 20  1  0
 20 21  2  0
 21 22  1  0
 22 23  1  0
 23 24  1  0
 24 25  2  0
 24 26  1  0
 26 27  1  0
 27 28  1  0
 28 29  1  0
 29 30  1  0
 22 31  2  0
 14  4  1  0
 31 18  1  0
 13  7  1  0
 30 26  1  0
M  END
>  <name>  (23) 
P103010

>  <alias>  (23) 
None

>  <smina_score_min>  (23) 
-7.174

>  <exports>  (23) 
['/opt/xchem-fragalysis-2/maxwin/BulkDock/OUTPUTS/openbind_xx01zvns2b_c2_elabs_1LOUTNY.sdf', '/opt/xchem-fragalysis-2/maxwin/BulkDock/OUTPUTS/openbind_xx01zvns2b_c2_elabs_1LSYIIV.sdf']

>  <tags>  (23) 
syndirella_placed,openbind_xx01zvns2b_c2_elabs,openbind_xx01zvns2b_c2_elabs_scored_6.2plus,syndirella_product,openbind_xx01zvns2b_c2_elabs_scored,openbind_xx01zvns2b_c2_elabs_scored_top80percent,BulkDock Fragalysis export

>  <subsites>  (23) 
1 - Z4590/B/203/1

>  <smiles>  (23) 
CC(=O)c1cnc2ccc(Br)cc2c1NC(=O)c1cncc(NC(=O)C2CCCC2)c1

>  <HIPPO Pose ID>  (23) 
103010

>  <energy_score>  (23) 
-7.96816

>  <inchikey>  (23) 
COMDUOWJNITOHW-UHFFFAOYSA-N

>  <gnina_score_min>  (23) 
6.285

>  <gnina_score>  (23) 
6.313

>  <ref_mols>  (23) 
Z1597a

>  <HIPPO Compound ID>  (23) 
162098

>  <distance_score>  (23) 
1.09732

>  <rmsd(smina/fragmenstein)>  (23) 
1.081

>  <ref_pdb>  (23) 
Z1597a

>  <inspiration_score>  (23) 
None

$$$$
P103011
     RDKit          3D

 31 34  0  0  0  0  0  0  0  0999 V2000
   -5.8682    3.8482  -13.9812 O   0  0  0  0  0  0  0  0  0  0  0  0
   -6.8268    4.4801  -14.1705 C   0  0  0  0  0  0  0  0  0  0  0  0
   -7.8145    5.1138  -13.1777 N   0  0  0  0  0  0  0  0  0  0  0  0
   -7.8825    5.0272  -11.7882 C   0  0  0  0  0  0  0  0  0  0  0  0
   -7.6780    3.7700  -11.2085 C   0  0  0  0  0  0  0  0  0  0  0  0
   -7.8105    3.6454   -9.8388 C   0  0  0  0  0  0  0  0  0  0  0  0
   -8.0843    4.6880   -9.0288 N   0  0  0  0  0  0  0  0  0  0  0  0
   -8.2379    5.8979   -9.6223 C   0  0  0  0  0  0  0  0  0  0  0  0
   -8.1495    6.1537  -10.9944 C   0  0  0  0  0  0  0  0  0  0  0  0
   -8.1904    7.5428  -11.5110 C   0  0  0  0  0  0  0  0  0  0  0  0
   -7.2392    7.9990  -12.4482 C   0  0  0  0  0  0  0  0  0  0  0  0
   -7.2627    9.3102  -12.9344 C   0  0  0  0  0  0  0  0  0  0  0  0
   -8.2316   10.1929  -12.4788 C   0  0  0  0  0  0  0  0  0  0  0  0
   -8.2580   11.4449  -12.9535 F   0  0  0  0  0  0  0  0  0  0  0  0
   -9.1590    9.7975  -11.5303 C   0  0  0  0  0  0  0  0  0  0  0  0
   -9.1203    8.4909  -11.0478 C   0  0  0  0  0  0  0  0  0  0  0  0
  -10.0035    8.1590  -10.0965 F   0  0  0  0  0  0  0  0  0  0  0  0
   -7.2578    4.6690  -15.5752 C   0  0  0  0  0  0  0  0  0  0  0  0
   -8.4758    4.1780  -16.0211 C   0  0  0  0  0  0  0  0  0  0  0  0
   -8.8479    4.1573  -17.3245 N   0  0  0  0  0  0  0  0  0  0  0  0
   -7.9557    4.6559  -18.2173 C   0  0  0  0  0  0  0  0  0  0  0  0
   -6.7219    5.1974  -17.8623 C   0  0  0  0  0  0  0  0  0  0  0  0
   -5.8680    5.7578  -18.8108 N   0  0  0  0  0  0  0  0  0  0  0  0
   -4.4495    6.3854  -18.6504 C   0  0  0  0  0  0  0  0  0  0  0  0
   -3.8175    6.5959  -17.6868 O   0  0  0  0  0  0  0  0  0  0  0  0
   -3.9271    6.8540  -20.0106 C   0  0  0  0  0  0  0  0  0  0  0  0
   -4.6900    8.0615  -20.5561 C   0  0  0  0  0  0  0  0  0  0  0  0
   -4.8916    7.8064  -22.0444 C   0  0  0  0  0  0  0  0  0  0  0  0
   -3.8884    6.7211  -22.3865 C   0  0  0  0  0  0  0  0  0  0  0  0
   -3.8945    5.8386  -21.1438 C   0  0  0  0  0  0  0  0  0  0  0  0
   -6.3660    5.1789  -16.5150 C   0  0  0  0  0  0  0  0  0  0  0  0
  1  2  2  0
  2  3  1  0
  3  4  1  0
  4  5  2  0
  5  6  1  0
  6  7  2  0
  7  8  1  0
  8  9  2  0
  9 10  1  0
 10 11  2  0
 11 12  1  0
 12 13  2  0
 13 14  1  0
 13 15  1  0
 15 16  2  0
 16 17  1  0
  2 18  1  0
 18 19  2  0
 19 20  1  0
 20 21  2  0
 21 22  1  0
 22 23  1  0
 23 24  1  0
 24 25  2  0
 24 26  1  0
 26 27  1  0
 27 28  1  0
 28 29  1  0
 29 30  1  0
 22 31  2  0
  9  4  1  0
 16 10  1  0
 31 18  1  0
 30 26  1  0
M  END
>  <name>  (24) 
P103011

>  <alias>  (24) 
None

>  <smina_score_min>  (24) 
-7.233

>  <exports>  (24) 
['/opt/xchem-fragalysis-2/maxwin/BulkDock/OUTPUTS/openbind_xx01zvns2b_c2_elabs_1LOUTNY.sdf', '/opt/xchem-fragalysis-2/maxwin/BulkDock/OUTPUTS/openbind_xx01zvns2b_c2_elabs_1LSYIIV.sdf']

>  <tags>  (24) 
syndirella_placed,openbind_xx01zvns2b_c2_elabs,openbind_xx01zvns2b_c2_elabs_scored_6.2plus,syndirella_product,openbind_xx01zvns2b_c2_elabs_scored,openbind_xx01zvns2b_c2_elabs_scored_top80percent,BulkDock Fragalysis export

>  <subsites>  (24) 
1 - Z4590/B/203/1

>  <smiles>  (24) 
O=C(Nc1ccncc1-c1ccc(F)cc1F)c1cncc(NC(=O)C2CCCC2)c1

>  <HIPPO Pose ID>  (24) 
103011

>  <energy_score>  (24) 
-19.777328

>  <inchikey>  (24) 
LQVYZMOJXJFCGV-UHFFFAOYSA-N

>  <gnina_score_min>  (24) 
6.322

>  <gnina_score>  (24) 
6.333

>  <ref_mols>  (24) 
Z1597a

>  <HIPPO Compound ID>  (24) 
162099

>  <distance_score>  (24) 
1.007849

>  <rmsd(smina/fragmenstein)>  (24) 
1.077

>  <ref_pdb>  (24) 
Z1597a

>  <inspiration_score>  (24) 
None

$$$$
P103154
     RDKit          3D

 34 38  0  0  0  0  0  0  0  0999 V2000
   -7.0280    6.2207  -14.1880 O   0  0  0  0  0  0  0  0  0  0  0  0
   -7.6201    5.2165  -14.2832 C   0  0  0  0  0  0  0  0  0  0  0  0
   -8.1835    4.2781  -13.1916 N   0  0  0  0  0  0  0  0  0  0  0  0
   -8.0598    4.3261  -11.8103 C   0  0  0  0  0  0  0  0  0  0  0  0
   -7.3058    5.4060  -11.2979 C   0  0  0  0  0  0  0  0  0  0  0  0
   -7.0212    5.5147   -9.9568 C   0  0  0  0  0  0  0  0  0  0  0  0
   -7.5491    4.5393   -9.1565 C   0  0  0  0  0  0  0  0  0  0  0  0
   -8.3555    3.5164   -9.6059 C   0  0  0  0  0  0  0  0  0  0  0  0
   -8.6052    3.3561  -10.9594 C   0  0  0  0  0  0  0  0  0  0  0  0
   -8.8956    2.8682   -8.4042 C   0  0  0  0  0  0  0  0  0  0  0  0
   -9.7295    1.9864   -8.4809 O   0  0  0  0  0  0  0  0  0  0  0  0
   -8.3452    3.5371   -7.3176 N   0  0  0  0  0  0  0  0  0  0  0  0
   -8.7896    3.5149   -5.9801 C   0  0  0  0  0  0  0  0  0  0  0  0
   -8.0327    4.1392   -4.9581 C   0  0  0  0  0  0  0  0  0  0  0  0
   -8.5514    4.3671   -3.6932 C   0  0  0  0  0  0  0  0  0  0  0  0
   -9.8379    3.9576   -3.4455 C   0  0  0  0  0  0  0  0  0  0  0  0
  -10.3749    4.2163   -2.2448 F   0  0  0  0  0  0  0  0  0  0  0  0
  -10.5753    3.2800   -4.4193 C   0  0  0  0  0  0  0  0  0  0  0  0
  -10.0518    3.0309   -5.6762 C   0  0  0  0  0  0  0  0  0  0  0  0
   -7.4565    4.4903   -7.7282 C   0  0  0  0  0  0  0  0  0  0  0  0
   -6.7271    5.2719   -7.1380 O   0  0  0  0  0  0  0  0  0  0  0  0
   -7.7731    4.7095  -15.6520 C   0  0  0  0  0  0  0  0  0  0  0  0
   -8.9335    4.1383  -16.1657 C   0  0  0  0  0  0  0  0  0  0  0  0
   -9.0202    3.8412  -17.5269 C   0  0  0  0  0  0  0  0  0  0  0  0
   -7.9449    4.0873  -18.3965 C   0  0  0  0  0  0  0  0  0  0  0  0
   -6.7625    4.6327  -17.8797 C   0  0  0  0  0  0  0  0  0  0  0  0
   -5.5687    4.9476  -18.4828 N   0  0  0  0  0  0  0  0  0  0  0  0
   -4.7711    5.3832  -17.5198 C   0  0  0  0  0  0  0  0  0  0  0  0
   -3.3375    5.7740  -17.5750 C   0  0  0  0  0  0  0  0  0  0  0  0
   -2.7253    5.5585  -16.3750 F   0  0  0  0  0  0  0  0  0  0  0  0
   -3.1824    7.0973  -17.8414 F   0  0  0  0  0  0  0  0  0  0  0  0
   -2.6274    5.0837  -18.4977 F   0  0  0  0  0  0  0  0  0  0  0  0
   -5.4507    5.4327  -16.3325 N   0  0  0  0  0  0  0  0  0  0  0  0
   -6.7081    4.9234  -16.5314 C   0  0  0  0  0  0  0  0  0  0  0  0
  1  2  2  0
  2  3  1  0
  3  4  1  0
  4  5  2  0
  5  6  1  0
  6  7  2  0
  7  8  1  0
  8  9  2  0
  8 10  1  0
 10 11  2  0
 10 12  1  0
 12 13  1  0
 13 14  2  0
 14 15  1  0
 15 16  2  0
 16 17  1  0
 16 18  1  0
 18 19  2  0
 12 20  1  0
 20 21  2  0
  2 22  1  0
 22 23  2  0
 23 24  1  0
 24 25  2  0
 25 26  1  0
 26 27  1  0
 27 28  2  0
 28 29  1  0
 29 30  1  0
 29 31  1  0
 29 32  1  0
 28 33  1  0
 33 34  1  0
  9  4  1  0
 19 13  1  0
 34 22  1  0
 20  7  1  0
 34 26  2  0
M  END
>  <name>  (25) 
P103154

>  <alias>  (25) 
None

>  <smina_score_min>  (25) 
-9.814

>  <exports>  (25) 
['/opt/xchem-fragalysis-2/maxwin/BulkDock/OUTPUTS/openbind_xx01zvns2b_c2_elabs_1LOUTNY.sdf', '/opt/xchem-fragalysis-2/maxwin/BulkDock/OUTPUTS/openbind_xx01zvns2b_c2_elabs_1LSYIIV.sdf']

>  <tags>  (25) 
syndirella_placed,openbind_xx01zvns2b_c2_elabs,openbind_xx01zvns2b_c2_elabs_scored_6.2plus,syndirella_product,openbind_xx01zvns2b_c2_elabs_scored,openbind_xx01zvns2b_c2_elabs_scored_top80percent,BulkDock Fragalysis export

>  <subsites>  (25) 
1 - Z4590/B/203/1

>  <smiles>  (25) 
O=C(Nc1ccc2c(c1)C(=O)N(c1ccc(F)cc1)C2=O)c1cccc2nc(C(F)(F)F)[nH]c12

>  <HIPPO Pose ID>  (25) 
103154

>  <energy_score>  (25) 
-45.47472

>  <inchikey>  (25) 
UPGLSFGQDIREBY-UHFFFAOYSA-N

>  <gnina_score_min>  (25) 
6.215

>  <gnina_score>  (25) 
5.938

>  <ref_mols>  (25) 
Z3501a

>  <HIPPO Compound ID>  (25) 
162249

>  <distance_score>  (25) 
0.852219

>  <rmsd(smina/fragmenstein)>  (25) 
0.846

>  <ref_pdb>  (25) 
Z3501a

>  <inspiration_score>  (25) 
None

$$$$
P103157
     RDKit          3D

 35 39  0  0  0  0  0  0  0  0999 V2000
   -9.8970    4.5994   -2.1133 C   0  0  0  0  0  0  0  0  0  0  0  0
   -8.9143    4.4018   -3.1558 N   0  0  0  0  0  0  0  0  0  0  0  0
   -7.6263    4.7858   -2.7958 C   0  0  0  0  0  0  0  0  0  0  0  0
   -7.3349    5.2495   -1.6923 O   0  0  0  0  0  0  0  0  0  0  0  0
   -6.5522    4.5344   -3.8046 C   0  0  0  0  0  0  0  0  0  0  0  0
   -7.0764    4.6869   -5.2090 C   0  0  0  0  0  0  0  0  0  0  0  0
   -8.2650    3.7463   -5.4929 C   0  0  2  0  0  0  0  0  0  0  0  0
   -8.7593    3.9496   -6.8655 N   0  0  0  0  0  0  0  0  0  0  0  0
   -8.8880    2.9231   -7.9266 C   0  0  0  0  0  0  0  0  0  0  0  0
   -8.6675    3.7366   -9.1794 C   0  0  0  0  0  0  0  0  0  0  0  0
   -8.5121    3.3963  -10.5245 C   0  0  0  0  0  0  0  0  0  0  0  0
   -8.2298    4.4354  -11.4372 C   0  0  0  0  0  0  0  0  0  0  0  0
   -8.0579    4.2270  -12.8067 N   0  0  0  0  0  0  0  0  0  0  0  0
   -7.4678    5.1561  -13.9011 C   0  0  0  0  0  0  0  0  0  0  0  0
   -6.9638    6.2095  -13.8115 O   0  0  0  0  0  0  0  0  0  0  0  0
   -7.6204    4.6563  -15.2840 C   0  0  0  0  0  0  0  0  0  0  0  0
   -8.8155    4.1373  -15.7900 C   0  0  0  0  0  0  0  0  0  0  0  0
   -8.9743    3.9158  -17.1634 C   0  0  0  0  0  0  0  0  0  0  0  0
   -7.9390    4.1945  -18.0672 C   0  0  0  0  0  0  0  0  0  0  0  0
   -6.7306    4.6983  -17.5702 C   0  0  0  0  0  0  0  0  0  0  0  0
   -5.5755    5.0457  -18.2244 N   0  0  0  0  0  0  0  0  0  0  0  0
   -4.7270    5.4369  -17.2879 C   0  0  0  0  0  0  0  0  0  0  0  0
   -3.2992    5.8308  -17.4190 C   0  0  0  0  0  0  0  0  0  0  0  0
   -3.1598    7.1458  -17.7296 F   0  0  0  0  0  0  0  0  0  0  0  0
   -2.6312    5.6463  -16.2444 F   0  0  0  0  0  0  0  0  0  0  0  0
   -2.6319    5.1160  -18.3562 F   0  0  0  0  0  0  0  0  0  0  0  0
   -5.3400    5.4328  -16.0606 N   0  0  0  0  0  0  0  0  0  0  0  0
   -6.6025    4.9174  -16.2085 C   0  0  0  0  0  0  0  0  0  0  0  0
   -8.1271    5.7725  -10.9984 C   0  0  0  0  0  0  0  0  0  0  0  0
   -8.3437    6.1150   -9.6784 C   0  0  0  0  0  0  0  0  0  0  0  0
   -8.6181    5.0829   -8.8159 C   0  0  0  0  0  0  0  0  0  0  0  0
   -8.8243    5.2190   -7.3858 C   0  0  0  0  0  0  0  0  0  0  0  0
   -8.9328    6.2817   -6.8022 O   0  0  0  0  0  0  0  0  0  0  0  0
   -9.3528    3.9740   -4.4274 C   0  0  0  0  0  0  0  0  0  0  0  0
  -10.5381    3.7454   -4.6725 O   0  0  0  0  0  0  0  0  0  0  0  0
  1  2  1  0
  2  3  1  0
  3  4  2  0
  3  5  1  0
  5  6  1  0
  6  7  1  0
  7  8  1  6
  8  9  1  0
  9 10  1  0
 10 11  2  0
 11 12  1  0
 12 13  1  0
 13 14  1  0
 14 15  2  0
 14 16  1  0
 16 17  2  0
 17 18  1  0
 18 19  2  0
 19 20  1  0
 20 21  1  0
 21 22  2  0
 22 23  1  0
 23 24  1  0
 23 25  1  0
 23 26  1  0
 22 27  1  0
 27 28  1  0
 12 29  2  0
 29 30  1  0
 30 31  2  0
 31 32  1  0
 32 33  2  0
  7 34  1  0
 34 35  2  0
 34  2  1  0
 32  8  1  0
 31 10  1  0
 28 16  1  0
 28 20  2  0
M  END
>  <name>  (26) 
P103157

>  <alias>  (26) 
None

>  <smina_score_min>  (26) 
-9.38

>  <exports>  (26) 
['/opt/xchem-fragalysis-2/maxwin/BulkDock/OUTPUTS/openbind_xx01zvns2b_c2_elabs_1LOUTNY.sdf', '/opt/xchem-fragalysis-2/maxwin/BulkDock/OUTPUTS/openbind_xx01zvns2b_c2_elabs_1LSYIIV.sdf']

>  <tags>  (26) 
syndirella_placed,openbind_xx01zvns2b_c2_elabs,openbind_xx01zvns2b_c2_elabs_scored_6.2plus,syndirella_product,openbind_xx01zvns2b_c2_elabs_scored,openbind_xx01zvns2b_c2_elabs_scored_top80percent,BulkDock Fragalysis export

>  <subsites>  (26) 
1 - Z4590/B/203/1

>  <smiles>  (26) 
CN1C(=O)CC[C@H](N2Cc3cc(NC(=O)c4cccc5nc(C(F)(F)F)[nH]c45)ccc3C2=O)C1=O

>  <HIPPO Pose ID>  (26) 
103157

>  <energy_score>  (26) 
-29.403013

>  <inchikey>  (26) 
SLXQHJXTDXZXAM-INIZCTEOSA-N

>  <gnina_score_min>  (26) 
6.212

>  <gnina_score>  (26) 
6.153

>  <ref_mols>  (26) 
Z3501a

>  <HIPPO Compound ID>  (26) 
162253

>  <distance_score>  (26) 
0.749125

>  <rmsd(smina/fragmenstein)>  (26) 
0.549

>  <ref_pdb>  (26) 
Z3501a

>  <inspiration_score>  (26) 
None

$$$$
P103176
     RDKit          3D

 30 33  0  0  0  0  0  0  0  0999 V2000
   -8.7023    6.1760   -3.9891 C   0  0  0  0  0  0  0  0  0  0  0  0
   -9.1887    5.0189   -3.3228 O   0  0  0  0  0  0  0  0  0  0  0  0
   -9.0256    3.8219   -4.0999 C   0  0  0  0  0  0  0  0  0  0  0  0
  -10.2133    3.6218   -5.0342 C   0  0  0  0  0  0  0  0  0  0  0  0
   -9.9869    2.6720   -6.2211 C   0  0  0  0  0  0  0  0  0  0  0  0
   -8.8949    3.0068   -7.1303 N   0  0  0  0  0  0  0  0  0  0  0  0
   -8.6567    4.4264   -7.3829 C   0  0  0  0  0  0  0  0  0  0  0  0
   -8.3952    4.5490   -8.8401 C   0  0  0  0  0  0  0  0  0  0  0  0
   -8.0740    5.6925   -9.5419 C   0  0  0  0  0  0  0  0  0  0  0  0
   -7.9445    5.5938  -10.9223 C   0  0  0  0  0  0  0  0  0  0  0  0
   -8.1280    4.3667  -11.5812 C   0  0  0  0  0  0  0  0  0  0  0  0
   -7.9903    4.3147  -12.9688 N   0  0  0  0  0  0  0  0  0  0  0  0
   -7.5818    5.4125  -13.9799 C   0  0  0  0  0  0  0  0  0  0  0  0
   -7.3717    6.5504  -13.8186 O   0  0  0  0  0  0  0  0  0  0  0  0
   -7.4418    4.8861  -15.3554 C   0  0  0  0  0  0  0  0  0  0  0  0
   -8.6191    4.4712  -15.9873 C   0  0  0  0  0  0  0  0  0  0  0  0
   -8.6254    4.2798  -17.3648 C   0  0  0  0  0  0  0  0  0  0  0  0
  -10.0897    3.8833  -18.1607 Cl  0  0  0  0  0  0  0  0  0  0  0  0
   -7.4691    4.4748  -18.1115 C   0  0  0  0  0  0  0  0  0  0  0  0
   -6.2851    4.8619  -17.4811 C   0  0  0  0  0  0  0  0  0  0  0  0
   -6.2596    5.0770  -16.0962 C   0  0  0  0  0  0  0  0  0  0  0  0
   -5.0320    5.4271  -15.4657 N   0  0  0  0  0  0  0  0  0  0  0  0
   -4.5952    4.9615  -14.2424 C   0  0  0  0  0  0  0  0  0  0  0  0
   -3.3299    5.4592  -14.0678 C   0  0  0  0  0  0  0  0  0  0  0  0
   -2.9660    6.2313  -15.1300 N   0  0  0  0  0  0  0  0  0  0  0  0
   -4.0020    6.2302  -15.9499 C   0  0  0  0  0  0  0  0  0  0  0  0
   -4.0758    7.0720  -17.1734 C   0  0  0  0  0  0  0  0  0  0  0  0
   -8.4456    3.2117  -10.8508 C   0  0  0  0  0  0  0  0  0  0  0  0
   -8.5811    3.3235   -9.4712 C   0  0  0  0  0  0  0  0  0  0  0  0
   -8.9732    2.3001   -8.4423 C   0  0  0  0  0  0  0  0  0  0  0  0
  1  2  1  0
  2  3  1  0
  3  4  1  0
  4  5  1  0
  5  6  1  0
  6  7  1  0
  7  8  1  0
  8  9  2  0
  9 10  1  0
 10 11  2  0
 11 12  1  0
 12 13  1  0
 13 14  2  0
 13 15  1  0
 15 16  2  0
 16 17  1  0
 17 18  1  0
 17 19  2  0
 19 20  1  0
 20 21  2  0
 21 22  1  0
 22 23  1  0
 23 24  2  0
 24 25  1  0
 25 26  2  0
 26 27  1  0
 11 28  1  0
 28 29  2  0
 29 30  1  0
 30  6  1  0
 29  8  1  0
 21 15  1  0
 26 22  1  0
M  END
>  <name>  (27) 
P103176

>  <alias>  (27) 
None

>  <smina_score_min>  (27) 
-7.929

>  <exports>  (27) 
['/opt/xchem-fragalysis-2/maxwin/BulkDock/OUTPUTS/openbind_xx01zvns2b_c2_elabs_1LOUTNY.sdf', '/opt/xchem-fragalysis-2/maxwin/BulkDock/OUTPUTS/openbind_xx01zvns2b_c2_elabs_1LSYIIV.sdf']

>  <tags>  (27) 
syndirella_placed,openbind_xx01zvns2b_c2_elabs,openbind_xx01zvns2b_c2_elabs_scored_6.2plus,syndirella_product,openbind_xx01zvns2b_c2_elabs_scored,openbind_xx01zvns2b_c2_elabs_scored_top80percent,BulkDock Fragalysis export

>  <subsites>  (27) 
1 - Z4590/B/203/1

>  <smiles>  (27) 
COCCCN1Cc2ccc(NC(=O)c3cc(Cl)ccc3-n3ccnc3C)cc2C1

>  <HIPPO Pose ID>  (27) 
103176

>  <energy_score>  (27) 
-12.664292

>  <inchikey>  (27) 
BFDAEXLZNUXOKC-UHFFFAOYSA-N

>  <gnina_score_min>  (27) 
6.275

>  <gnina_score>  (27) 
6.145

>  <ref_mols>  (27) 
Z3546a

>  <HIPPO Compound ID>  (27) 
162278

>  <distance_score>  (27) 
0.472966

>  <rmsd(smina/fragmenstein)>  (27) 
0.892

>  <ref_pdb>  (27) 
Z3546a

>  <inspiration_score>  (27) 
None

$$$$
P103177
     RDKit          3D

 30 33  0  0  0  0  0  0  0  0999 V2000
   -4.0538    7.0967  -17.2029 C   0  0  0  0  0  0  0  0  0  0  0  0
   -3.9857    6.2595  -15.9760 C   0  0  0  0  0  0  0  0  0  0  0  0
   -2.9522    6.2603  -15.1529 N   0  0  0  0  0  0  0  0  0  0  0  0
   -3.3209    5.4901  -14.0906 C   0  0  0  0  0  0  0  0  0  0  0  0
   -4.5870    4.9954  -14.2680 C   0  0  0  0  0  0  0  0  0  0  0  0
   -5.0193    5.4612  -15.4925 N   0  0  0  0  0  0  0  0  0  0  0  0
   -6.2451    5.1140  -16.1266 C   0  0  0  0  0  0  0  0  0  0  0  0
   -6.2649    4.8829  -17.5089 C   0  0  0  0  0  0  0  0  0  0  0  0
   -7.4458    4.4844  -18.1395 C   0  0  0  0  0  0  0  0  0  0  0  0
   -8.6051    4.2959  -17.3958 C   0  0  0  0  0  0  0  0  0  0  0  0
  -10.0654    3.8769  -18.1869 Cl  0  0  0  0  0  0  0  0  0  0  0  0
   -8.6047    4.5077  -16.0224 C   0  0  0  0  0  0  0  0  0  0  0  0
   -7.4305    4.9339  -15.3919 C   0  0  0  0  0  0  0  0  0  0  0  0
   -7.5747    5.4430  -14.0108 C   0  0  0  0  0  0  0  0  0  0  0  0
   -7.3851    6.5789  -13.8206 O   0  0  0  0  0  0  0  0  0  0  0  0
   -7.9667    4.3155  -13.0310 N   0  0  0  0  0  0  0  0  0  0  0  0
   -8.1099    4.3301  -11.6458 C   0  0  0  0  0  0  0  0  0  0  0  0
   -7.9673    5.5325  -10.9346 C   0  0  0  0  0  0  0  0  0  0  0  0
   -8.0927    5.5611   -9.5475 C   0  0  0  0  0  0  0  0  0  0  0  0
   -8.3671    4.3746   -8.8962 C   0  0  0  0  0  0  0  0  0  0  0  0
   -8.5150    3.1791   -9.5900 C   0  0  0  0  0  0  0  0  0  0  0  0
   -8.3862    3.1363  -10.9699 C   0  0  0  0  0  0  0  0  0  0  0  0
   -8.8293    2.0777   -8.6262 C   0  0  0  0  0  0  0  0  0  0  0  0
   -8.8406    2.7191   -7.2863 N   0  0  0  0  0  0  0  0  0  0  0  0
  -10.0119    2.3424   -6.4867 C   0  0  0  0  0  0  0  0  0  0  0  0
  -10.3755    3.1392   -5.2267 C   0  0  0  0  0  0  0  0  0  0  0  0
  -10.7939    4.3934   -5.5471 F   0  0  0  0  0  0  0  0  0  0  0  0
  -11.4165    2.5566   -4.5872 F   0  0  0  0  0  0  0  0  0  0  0  0
   -9.3648    3.2868   -4.3475 F   0  0  0  0  0  0  0  0  0  0  0  0
   -8.5894    4.1541   -7.4411 C   0  0  0  0  0  0  0  0  0  0  0  0
  1  2  1  0
  2  3  2  0
  3  4  1  0
  4  5  2  0
  5  6  1  0
  6  7  1  0
  7  8  2  0
  8  9  1  0
  9 10  2  0
 10 11  1  0
 10 12  1  0
 12 13  2  0
 13 14  1  0
 14 15  2  0
 14 16  1  0
 16 17  1  0
 17 18  2  0
 18 19  1  0
 19 20  2  0
 20 21  1  0
 21 22  2  0
 21 23  1  0
 23 24  1  0
 24 25  1  0
 25 26  1  0
 26 27  1  0
 26 28  1  0
 26 29  1  0
 24 30  1  0
  6  2  1  0
 13  7  1  0
 22 17  1  0
 30 20  1  0
M  END
>  <name>  (28) 
P103177

>  <alias>  (28) 
None

>  <smina_score_min>  (28) 
-9.217

>  <exports>  (28) 
['/opt/xchem-fragalysis-2/maxwin/BulkDock/OUTPUTS/openbind_xx01zvns2b_c2_elabs_1LOUTNY.sdf', '/opt/xchem-fragalysis-2/maxwin/BulkDock/OUTPUTS/openbind_xx01zvns2b_c2_elabs_1LSYIIV.sdf']

>  <tags>  (28) 
syndirella_placed,openbind_xx01zvns2b_c2_elabs,openbind_xx01zvns2b_c2_elabs_scored_6.2plus,syndirella_product,openbind_xx01zvns2b_c2_elabs_scored,openbind_xx01zvns2b_c2_elabs_scored_top80percent,BulkDock Fragalysis export

>  <subsites>  (28) 
1 - Z4590/B/203/1

>  <smiles>  (28) 
Cc1nccn1-c1ccc(Cl)cc1C(=O)Nc1ccc2c(c1)CN(CC(F)(F)F)C2

>  <HIPPO Pose ID>  (28) 
103177

>  <energy_score>  (28) 
-34.909853

>  <inchikey>  (28) 
LORSDBMSTDNZSU-UHFFFAOYSA-N

>  <gnina_score_min>  (28) 
6.247

>  <gnina_score>  (28) 
6.31

>  <ref_mols>  (28) 
Z3546a

>  <HIPPO Compound ID>  (28) 
162279

>  <distance_score>  (28) 
0.43625

>  <rmsd(smina/fragmenstein)>  (28) 
1.168

>  <ref_pdb>  (28) 
Z3546a

>  <inspiration_score>  (28) 
None

$$$$
P103185
     RDKit          3D

 31 34  0  0  0  0  0  0  0  0999 V2000
   -8.9002    5.2053   -0.9038 C   0  0  0  0  0  0  0  0  0  0  0  0
   -9.1225    5.0867   -2.3988 C   0  0  0  0  0  0  0  0  0  0  0  0
   -8.3709    3.9769   -2.8733 O   0  0  0  0  0  0  0  0  0  0  0  0
   -8.3764    3.8405   -4.3004 C   0  0  0  0  0  0  0  0  0  0  0  0
   -9.7579    3.5060   -4.8635 C   0  0  0  0  0  0  0  0  0  0  0  0
   -9.7735    2.7079   -6.1793 C   0  0  0  0  0  0  0  0  0  0  0  0
   -8.8049    3.1083   -7.1855 N   0  0  0  0  0  0  0  0  0  0  0  0
   -8.6798    4.5377   -7.4437 C   0  0  0  0  0  0  0  0  0  0  0  0
   -8.4363    4.6543   -8.9045 C   0  0  0  0  0  0  0  0  0  0  0  0
   -8.1179    5.7909   -9.6160 C   0  0  0  0  0  0  0  0  0  0  0  0
   -7.9367    5.6656  -10.9877 C   0  0  0  0  0  0  0  0  0  0  0  0
   -8.0789    4.4225  -11.6279 C   0  0  0  0  0  0  0  0  0  0  0  0
   -7.8443    4.3371  -12.9985 N   0  0  0  0  0  0  0  0  0  0  0  0
   -7.5678    5.4446  -14.0403 C   0  0  0  0  0  0  0  0  0  0  0  0
   -7.4171    6.5942  -13.9013 O   0  0  0  0  0  0  0  0  0  0  0  0
   -7.4367    4.9017  -15.4067 C   0  0  0  0  0  0  0  0  0  0  0  0
   -8.6188    4.4843  -16.0254 C   0  0  0  0  0  0  0  0  0  0  0  0
   -8.6314    4.2775  -17.3997 C   0  0  0  0  0  0  0  0  0  0  0  0
  -10.1020    3.8806  -18.1823 Cl  0  0  0  0  0  0  0  0  0  0  0  0
   -7.4769    4.4589  -18.1532 C   0  0  0  0  0  0  0  0  0  0  0  0
   -6.2883    4.8501  -17.5333 C   0  0  0  0  0  0  0  0  0  0  0  0
   -6.2563    5.0802  -16.1518 C   0  0  0  0  0  0  0  0  0  0  0  0
   -5.0277    5.4381  -15.5281 N   0  0  0  0  0  0  0  0  0  0  0  0
   -4.5843    4.9828  -14.3035 C   0  0  0  0  0  0  0  0  0  0  0  0
   -3.3227    5.4912  -14.1342 C   0  0  0  0  0  0  0  0  0  0  0  0
   -2.9673    6.2603  -15.2016 N   0  0  0  0  0  0  0  0  0  0  0  0
   -4.0040    6.2438  -16.0206 C   0  0  0  0  0  0  0  0  0  0  0  0
   -4.0853    7.0727  -17.2523 C   0  0  0  0  0  0  0  0  0  0  0  0
   -8.4129    3.2779  -10.8920 C   0  0  0  0  0  0  0  0  0  0  0  0
   -8.5858    3.4140   -9.5212 C   0  0  0  0  0  0  0  0  0  0  0  0
   -8.9637    2.3989   -8.4825 C   0  0  0  0  0  0  0  0  0  0  0  0
  1  2  1  0
  2  3  1  0
  3  4  1  0
  4  5  1  0
  5  6  1  0
  6  7  1  0
  7  8  1  0
  8  9  1  0
  9 10  2  0
 10 11  1  0
 11 12  2  0
 12 13  1  0
 13 14  1  0
 14 15  2  0
 14 16  1  0
 16 17  2  0
 17 18  1  0
 18 19  1  0
 18 20  2  0
 20 21  1  0
 21 22  2  0
 22 23  1  0
 23 24  1  0
 24 25  2  0
 25 26  1  0
 26 27  2  0
 27 28  1  0
 12 29  1  0
 29 30  2  0
 30 31  1  0
 31  7  1  0
 30  9  1  0
 22 16  1  0
 27 23  1  0
M  END
>  <name>  (29) 
P103185

>  <alias>  (29) 
None

>  <smina_score_min>  (29) 
-7.917

>  <exports>  (29) 
['/opt/xchem-fragalysis-2/maxwin/BulkDock/OUTPUTS/openbind_xx01zvns2b_c2_elabs_1LOUTNY.sdf', '/opt/xchem-fragalysis-2/maxwin/BulkDock/OUTPUTS/openbind_xx01zvns2b_c2_elabs_1LSYIIV.sdf']

>  <tags>  (29) 
syndirella_placed,openbind_xx01zvns2b_c2_elabs,openbind_xx01zvns2b_c2_elabs_scored_6.2plus,syndirella_product,openbind_xx01zvns2b_c2_elabs_scored,openbind_xx01zvns2b_c2_elabs_scored_top80percent,BulkDock Fragalysis export

>  <subsites>  (29) 
1 - Z4590/B/203/1

>  <smiles>  (29) 
CCOCCCN1Cc2ccc(NC(=O)c3cc(Cl)ccc3-n3ccnc3C)cc2C1

>  <HIPPO Pose ID>  (29) 
103185

>  <energy_score>  (29) 
-47.246274

>  <inchikey>  (29) 
STCSDLWTCIQOHQ-UHFFFAOYSA-N

>  <gnina_score_min>  (29) 
6.293

>  <gnina_score>  (29) 
6.233

>  <ref_mols>  (29) 
Z3546a

>  <HIPPO Compound ID>  (29) 
162288

>  <distance_score>  (29) 
0.538515

>  <rmsd(smina/fragmenstein)>  (29) 
0.972

>  <ref_pdb>  (29) 
Z3546a

>  <inspiration_score>  (29) 
None

$$$$
P103187
     RDKit          3D

 31 35  0  0  0  0  0  0  0  0999 V2000
   -4.0286    6.9055  -17.4901 C   0  0  0  0  0  0  0  0  0  0  0  0
   -3.9950    6.1341  -16.2196 C   0  0  0  0  0  0  0  0  0  0  0  0
   -2.9796    6.1716  -15.3742 N   0  0  0  0  0  0  0  0  0  0  0  0
   -3.3741    5.4566  -14.2836 C   0  0  0  0  0  0  0  0  0  0  0  0
   -4.6382    4.9595  -14.4645 C   0  0  0  0  0  0  0  0  0  0  0  0
   -5.0458    5.3698  -15.7190 N   0  0  0  0  0  0  0  0  0  0  0  0
   -6.2750    5.0165  -16.3490 C   0  0  0  0  0  0  0  0  0  0  0  0
   -6.3142    4.7558  -17.7214 C   0  0  0  0  0  0  0  0  0  0  0  0
   -7.5147    4.3707  -18.3261 C   0  0  0  0  0  0  0  0  0  0  0  0
   -8.6727    4.2338  -17.5681 C   0  0  0  0  0  0  0  0  0  0  0  0
  -10.1638    3.8748  -18.3192 Cl  0  0  0  0  0  0  0  0  0  0  0  0
   -8.6538    4.4676  -16.2041 C   0  0  0  0  0  0  0  0  0  0  0  0
   -7.4631    4.8810  -15.6085 C   0  0  0  0  0  0  0  0  0  0  0  0
   -7.5985    5.5071  -14.2903 C   0  0  0  0  0  0  0  0  0  0  0  0
   -7.3368    6.6422  -14.2125 O   0  0  0  0  0  0  0  0  0  0  0  0
   -8.0402    4.5050  -13.2023 N   0  0  0  0  0  0  0  0  0  0  0  0
   -8.1561    4.6598  -11.8291 C   0  0  0  0  0  0  0  0  0  0  0  0
   -7.9097    5.9433  -11.3122 C   0  0  0  0  0  0  0  0  0  0  0  0
   -7.8676    6.1669   -9.9551 C   0  0  0  0  0  0  0  0  0  0  0  0
   -8.0921    5.0861   -9.1386 C   0  0  0  0  0  0  0  0  0  0  0  0
   -8.4142    3.8138   -9.6177 C   0  0  0  0  0  0  0  0  0  0  0  0
   -8.4424    3.5780  -10.9845 C   0  0  0  0  0  0  0  0  0  0  0  0
   -8.7028    2.9057   -8.4500 C   0  0  0  0  0  0  0  0  0  0  0  0
   -8.2554    3.7243   -7.2893 N   0  0  0  0  0  0  0  0  0  0  0  0
   -8.7839    3.6709   -6.0105 C   0  0  0  0  0  0  0  0  0  0  0  0
  -10.0196    3.1125   -5.7326 C   0  0  0  0  0  0  0  0  0  0  0  0
  -10.5991    3.3266   -4.4919 C   0  0  0  0  0  0  0  0  0  0  0  0
   -9.9383    4.0494   -3.4916 C   0  0  0  0  0  0  0  0  0  0  0  0
   -8.6628    4.5274   -3.7132 C   0  0  0  0  0  0  0  0  0  0  0  0
   -8.0944    4.3304   -4.9636 C   0  0  0  0  0  0  0  0  0  0  0  0
   -8.0122    5.1130   -7.6671 C   0  0  0  0  0  0  0  0  0  0  0  0
  1  2  1  0
  2  3  2  0
  3  4  1  0
  4  5  2  0
  5  6  1  0
  6  7  1  0
  7  8  2  0
  8  9  1  0
  9 10  2  0
 10 11  1  0
 10 12  1  0
 12 13  2  0
 13 14  1  0
 14 15  2  0
 14 16  1  0
 16 17  1  0
 17 18  2  0
 18 19  1  0
 19 20  2  0
 20 21  1  0
 21 22  2  0
 21 23  1  0
 23 24  1  0
 24 25  1  0
 25 26  2  0
 26 27  1  0
 27 28  2  0
 28 29  1  0
 29 30  2  0
 24 31  1  0
  6  2  1  0
 13  7  1  0
 22 17  1  0
 30 25  1  0
 31 20  1  0
M  END
>  <name>  (30) 
P103187

>  <alias>  (30) 
None

>  <smina_score_min>  (30) 
-8.492

>  <exports>  (30) 
['/opt/xchem-fragalysis-2/maxwin/BulkDock/OUTPUTS/openbind_xx01zvns2b_c2_elabs_1LOUTNY.sdf', '/opt/xchem-fragalysis-2/maxwin/BulkDock/OUTPUTS/openbind_xx01zvns2b_c2_elabs_1LSYIIV.sdf']

>  <tags>  (30) 
syndirella_placed,openbind_xx01zvns2b_c2_elabs,openbind_xx01zvns2b_c2_elabs_scored_6.2plus,syndirella_product,openbind_xx01zvns2b_c2_elabs_scored,openbind_xx01zvns2b_c2_elabs_scored_top80percent,BulkDock Fragalysis export

>  <subsites>  (30) 
1 - Z4590/B/203/1

>  <smiles>  (30) 
Cc1nccn1-c1ccc(Cl)cc1C(=O)Nc1ccc2c(c1)CN(c1ccccc1)C2

>  <HIPPO Pose ID>  (30) 
103187

>  <energy_score>  (30) 
-24.942088

>  <inchikey>  (30) 
YKIICBLFQNUKRT-UHFFFAOYSA-N

>  <gnina_score_min>  (30) 
6.248

>  <gnina_score>  (30) 
6.182

>  <ref_mols>  (30) 
Z3546a

>  <HIPPO Compound ID>  (30) 
162291

>  <distance_score>  (30) 
0.857057

>  <rmsd(smina/fragmenstein)>  (30) 
0.656

>  <ref_pdb>  (30) 
Z3546a

>  <inspiration_score>  (30) 
None

$$$$
P103191
     RDKit          3D

 33 37  0  0  0  0  0  0  0  0999 V2000
   -3.9846    6.9846  -17.4365 C   0  0  0  0  0  0  0  0  0  0  0  0
   -3.9521    6.1997  -16.1741 C   0  0  0  0  0  0  0  0  0  0  0  0
   -2.9384    6.2280  -15.3267 N   0  0  0  0  0  0  0  0  0  0  0  0
   -3.3346    5.5017  -14.2444 C   0  0  0  0  0  0  0  0  0  0  0  0
   -4.5979    5.0053  -14.4332 C   0  0  0  0  0  0  0  0  0  0  0  0
   -5.0026    5.4295  -15.6834 N   0  0  0  0  0  0  0  0  0  0  0  0
   -6.2251    5.0775  -16.3226 C   0  0  0  0  0  0  0  0  0  0  0  0
   -6.2504    4.8126  -17.6956 C   0  0  0  0  0  0  0  0  0  0  0  0
   -7.4409    4.4126  -18.3113 C   0  0  0  0  0  0  0  0  0  0  0  0
   -8.6045    4.2662  -17.5644 C   0  0  0  0  0  0  0  0  0  0  0  0
  -10.0809    3.8622  -18.3233 Cl  0  0  0  0  0  0  0  0  0  0  0  0
   -8.5998    4.5127  -16.2022 C   0  0  0  0  0  0  0  0  0  0  0  0
   -7.4164    4.9356  -15.5938 C   0  0  0  0  0  0  0  0  0  0  0  0
   -7.5644    5.5100  -14.2513 C   0  0  0  0  0  0  0  0  0  0  0  0
   -7.4061    6.6585  -14.1253 O   0  0  0  0  0  0  0  0  0  0  0  0
   -7.9619    4.4370  -13.2192 N   0  0  0  0  0  0  0  0  0  0  0  0
   -8.1485    4.5311  -11.8504 C   0  0  0  0  0  0  0  0  0  0  0  0
   -8.0144    5.7934  -11.2374 C   0  0  0  0  0  0  0  0  0  0  0  0
   -8.1713    5.9409   -9.8717 C   0  0  0  0  0  0  0  0  0  0  0  0
   -8.4473    4.7964   -9.1668 C   0  0  0  0  0  0  0  0  0  0  0  0
   -8.5803    3.5288   -9.7390 C   0  0  0  0  0  0  0  0  0  0  0  0
   -8.4430    3.3808  -11.1050 C   0  0  0  0  0  0  0  0  0  0  0  0
   -8.8562    2.5241   -8.6681 C   0  0  0  0  0  0  0  0  0  0  0  0
   -8.7364    3.3486   -7.4711 N   0  0  0  0  0  0  0  0  0  0  0  0
   -8.8238    2.8195   -6.1422 C   0  0  1  0  0  0  0  0  0  0  0  0
   -7.8355    3.4355   -5.1562 C   0  0  0  0  0  0  0  0  0  0  0  0
   -8.7016    3.8290   -4.0067 C   0  0  0  0  0  0  0  0  0  0  0  0
   -8.3301    4.4961   -3.0523 O   0  0  0  0  0  0  0  0  0  0  0  0
   -9.9283    3.2625   -4.1442 N   0  0  0  0  0  0  0  0  0  0  0  0
  -10.1444    3.1364   -5.4824 C   0  0  0  0  0  0  0  0  0  0  0  0
  -11.2219    3.2883   -6.0310 O   0  0  0  0  0  0  0  0  0  0  0  0
   -8.6114    4.6874   -7.7323 C   0  0  0  0  0  0  0  0  0  0  0  0
   -8.6045    5.6250   -6.9582 O   0  0  0  0  0  0  0  0  0  0  0  0
  1  2  1  0
  2  3  2  0
  3  4  1  0
  4  5  2  0
  5  6  1  0
  6  7  1  0
  7  8  2  0
  8  9  1  0
  9 10  2  0
 10 11  1  0
 10 12  1  0
 12 13  2  0
 13 14  1  0
 14 15  2  0
 14 16  1  0
 16 17  1  0
 17 18  2  0
 18 19  1  0
 19 20  2  0
 20 21  1  0
 21 22  2  0
 21 23  1  0
 23 24  1  0
 25 24  1  6
 25 26  1  0
 26 27  1  0
 27 28  2  0
 27 29  1  0
 29 30  1  0
 30 31  2  0
 24 32  1  0
 32 33  2  0
  6  2  1  0
 13  7  1  0
 22 17  1  0
 30 25  1  0
 32 20  1  0
M  END
>  <name>  (31) 
P103191

>  <alias>  (31) 
None

>  <smina_score_min>  (31) 
-8.575

>  <exports>  (31) 
['/opt/xchem-fragalysis-2/maxwin/BulkDock/OUTPUTS/openbind_xx01zvns2b_c2_elabs_1LOUTNY.sdf', '/opt/xchem-fragalysis-2/maxwin/BulkDock/OUTPUTS/openbind_xx01zvns2b_c2_elabs_1LSYIIV.sdf']

>  <tags>  (31) 
syndirella_placed,openbind_xx01zvns2b_c2_elabs,openbind_xx01zvns2b_c2_elabs_scored_6.2plus,syndirella_product,openbind_xx01zvns2b_c2_elabs_scored,openbind_xx01zvns2b_c2_elabs_scored_top80percent,BulkDock Fragalysis export

>  <subsites>  (31) 
1 - Z4590/B/203/1

>  <smiles>  (31) 
Cc1nccn1-c1ccc(Cl)cc1C(=O)Nc1ccc2c(c1)CN([C@H]1CC(=O)NC1=O)C2=O

>  <HIPPO Pose ID>  (31) 
103191

>  <energy_score>  (31) 
-20.946585

>  <inchikey>  (31) 
COUNYUKUEKKCJF-IBGZPJMESA-N

>  <gnina_score_min>  (31) 
6.254

>  <gnina_score>  (31) 
6.382

>  <ref_mols>  (31) 
Z3546a

>  <HIPPO Compound ID>  (31) 
162296

>  <distance_score>  (31) 
0.69041

>  <rmsd(smina/fragmenstein)>  (31) 
0.533

>  <ref_pdb>  (31) 
Z3546a

>  <inspiration_score>  (31) 
None

$$$$
P103192
     RDKit          3D

 34 38  0  0  0  0  0  0  0  0999 V2000
   -3.9717    6.9829  -17.4184 C   0  0  0  0  0  0  0  0  0  0  0  0
   -3.9181    6.1875  -16.1635 C   0  0  0  0  0  0  0  0  0  0  0  0
   -2.8864    6.1974  -15.3379 N   0  0  0  0  0  0  0  0  0  0  0  0
   -3.2621    5.4537  -14.2592 C   0  0  0  0  0  0  0  0  0  0  0  0
   -4.5341    4.9717  -14.4254 C   0  0  0  0  0  0  0  0  0  0  0  0
   -4.9648    5.4237  -15.6570 N   0  0  0  0  0  0  0  0  0  0  0  0
   -6.2098    5.1011  -16.2674 C   0  0  0  0  0  0  0  0  0  0  0  0
   -6.2614    4.8217  -17.6375 C   0  0  0  0  0  0  0  0  0  0  0  0
   -7.4663    4.4312  -18.2273 C   0  0  0  0  0  0  0  0  0  0  0  0
   -8.6162    4.3034  -17.4552 C   0  0  0  0  0  0  0  0  0  0  0  0
  -10.1035    3.8948  -18.1990 Cl  0  0  0  0  0  0  0  0  0  0  0  0
   -8.5866    4.5759  -16.0933 C   0  0  0  0  0  0  0  0  0  0  0  0
   -7.3898    4.9984  -15.5086 C   0  0  0  0  0  0  0  0  0  0  0  0
   -7.4734    5.5996  -14.1619 C   0  0  0  0  0  0  0  0  0  0  0  0
   -7.1308    6.7079  -14.0381 O   0  0  0  0  0  0  0  0  0  0  0  0
   -7.9596    4.5801  -13.1118 N   0  0  0  0  0  0  0  0  0  0  0  0
   -8.0336    4.6758  -11.7290 C   0  0  0  0  0  0  0  0  0  0  0  0
   -7.5434    5.8342  -11.0841 C   0  0  0  0  0  0  0  0  0  0  0  0
   -7.5536    5.9551   -9.6955 C   0  0  0  0  0  0  0  0  0  0  0  0
   -8.0911    4.9074   -8.9925 C   0  0  0  0  0  0  0  0  0  0  0  0
   -8.6147    3.7947   -9.6231 C   0  0  0  0  0  0  0  0  0  0  0  0
   -8.5773    3.6251  -10.9929 C   0  0  0  0  0  0  0  0  0  0  0  0
   -9.2585    2.9977   -8.5958 C   0  0  0  0  0  0  0  0  0  0  0  0
  -10.0104    2.0823   -8.8585 O   0  0  0  0  0  0  0  0  0  0  0  0
   -8.9375    3.5779   -7.3907 N   0  0  0  0  0  0  0  0  0  0  0  0
   -9.3467    3.1155   -6.0852 C   0  0  1  0  0  0  0  0  0  0  0  0
  -10.6629    3.6035   -5.5368 C   0  0  0  0  0  0  0  0  0  0  0  0
  -11.4644    2.3445   -5.3813 C   0  0  0  0  0  0  0  0  0  0  0  0
  -12.5901    2.2644   -4.9218 O   0  0  0  0  0  0  0  0  0  0  0  0
  -10.7406    1.2902   -5.7727 N   0  0  0  0  0  0  0  0  0  0  0  0
   -9.5162    1.6477   -6.1875 C   0  0  0  0  0  0  0  0  0  0  0  0
   -8.6544    0.9309   -6.6420 O   0  0  0  0  0  0  0  0  0  0  0  0
   -8.2898    4.7581   -7.5595 C   0  0  0  0  0  0  0  0  0  0  0  0
   -7.9681    5.5836   -6.7248 O   0  0  0  0  0  0  0  0  0  0  0  0
  1  2  1  0
  2  3  2  0
  3  4  1  0
  4  5  2  0
  5  6  1  0
  6  7  1  0
  7  8  2  0
  8  9  1  0
  9 10  2  0
 10 11  1  0
 10 12  1  0
 12 13  2  0
 13 14  1  0
 14 15  2  0
 14 16  1  0
 16 17  1  0
 17 18  2  0
 18 19  1  0
 19 20  2  0
 20 21  1  0
 21 22  2  0
 21 23  1  0
 23 24  2  0
 23 25  1  0
 26 25  1  6
 26 27  1  0
 27 28  1  0
 28 29  2  0
 28 30  1  0
 30 31  1  0
 31 32  2  0
 25 33  1  0
 33 34  2  0
  6  2  1  0
 13  7  1  0
 22 17  1  0
 31 26  1  0
 33 20  1  0
M  END
>  <name>  (32) 
P103192

>  <alias>  (32) 
None

>  <smina_score_min>  (32) 
-7.436

>  <exports>  (32) 
['/opt/xchem-fragalysis-2/maxwin/BulkDock/OUTPUTS/openbind_xx01zvns2b_c2_elabs_1LOUTNY.sdf', '/opt/xchem-fragalysis-2/maxwin/BulkDock/OUTPUTS/openbind_xx01zvns2b_c2_elabs_1LSYIIV.sdf']

>  <tags>  (32) 
syndirella_placed,openbind_xx01zvns2b_c2_elabs,openbind_xx01zvns2b_c2_elabs_scored_6.2plus,syndirella_product,openbind_xx01zvns2b_c2_elabs_scored,openbind_xx01zvns2b_c2_elabs_scored_top80percent,BulkDock Fragalysis export

>  <subsites>  (32) 
1 - Z4590/B/203/1

>  <smiles>  (32) 
Cc1nccn1-c1ccc(Cl)cc1C(=O)Nc1ccc2c(c1)C(=O)N([C@H]1CC(=O)NC1=O)C2=O

>  <HIPPO Pose ID>  (32) 
103192

>  <energy_score>  (32) 
-27.558787

>  <inchikey>  (32) 
CANZJMIPZGAGGR-SFHVURJKSA-N

>  <gnina_score_min>  (32) 
6.273

>  <gnina_score>  (32) 
6.46

>  <ref_mols>  (32) 
Z3546a

>  <HIPPO Compound ID>  (32) 
162297

>  <distance_score>  (32) 
0.78561

>  <rmsd(smina/fragmenstein)>  (32) 
0.585

>  <ref_pdb>  (32) 
Z3546a

>  <inspiration_score>  (32) 
None

$$$$
P103194
     RDKit          3D

 34 38  0  0  0  0  0  0  0  0999 V2000
   -4.0495    7.0006  -17.3963 C   0  0  0  0  0  0  0  0  0  0  0  0
   -3.9856    6.1993  -16.1454 C   0  0  0  0  0  0  0  0  0  0  0  0
   -2.9582    6.2304  -15.3147 N   0  0  0  0  0  0  0  0  0  0  0  0
   -3.3269    5.4858  -14.2353 C   0  0  0  0  0  0  0  0  0  0  0  0
   -4.5869    4.9755  -14.4091 C   0  0  0  0  0  0  0  0  0  0  0  0
   -5.0178    5.4086  -15.6473 N   0  0  0  0  0  0  0  0  0  0  0  0
   -6.2470    5.0491  -16.2708 C   0  0  0  0  0  0  0  0  0  0  0  0
   -6.2876    4.8055  -17.6477 C   0  0  0  0  0  0  0  0  0  0  0  0
   -7.4843    4.4155  -18.2556 C   0  0  0  0  0  0  0  0  0  0  0  0
   -8.6384    4.2554  -17.4963 C   0  0  0  0  0  0  0  0  0  0  0  0
  -10.1214    3.8732  -18.2573 Cl  0  0  0  0  0  0  0  0  0  0  0  0
   -8.6177    4.4752  -16.1273 C   0  0  0  0  0  0  0  0  0  0  0  0
   -7.4279    4.8882  -15.5246 C   0  0  0  0  0  0  0  0  0  0  0  0
   -7.5563    5.4655  -14.1794 C   0  0  0  0  0  0  0  0  0  0  0  0
   -7.3919    6.6162  -14.0719 O   0  0  0  0  0  0  0  0  0  0  0  0
   -7.8618    4.3938  -13.1106 N   0  0  0  0  0  0  0  0  0  0  0  0
   -8.1134    4.5222  -11.7504 C   0  0  0  0  0  0  0  0  0  0  0  0
   -8.0071    5.8070  -11.1797 C   0  0  0  0  0  0  0  0  0  0  0  0
   -8.1975    6.0050   -9.8256 C   0  0  0  0  0  0  0  0  0  0  0  0
   -8.4805    4.8869   -9.0821 C   0  0  0  0  0  0  0  0  0  0  0  0
   -8.5939    3.5969   -9.6041 C   0  0  0  0  0  0  0  0  0  0  0  0
   -8.4199    3.3981  -10.9644 C   0  0  0  0  0  0  0  0  0  0  0  0
   -8.8882    2.6412   -8.4870 C   0  0  0  0  0  0  0  0  0  0  0  0
   -8.7842    3.5214   -7.3184 N   0  0  0  0  0  0  0  0  0  0  0  0
   -8.8233    3.0497   -5.9495 C   0  0  1  0  0  0  0  0  0  0  0  0
   -7.6799    3.6402   -5.1079 C   0  0  0  0  0  0  0  0  0  0  0  0
   -8.0502    4.7486   -4.1407 C   0  0  0  0  0  0  0  0  0  0  0  0
   -9.3183    4.4647   -3.3977 C   0  0  0  0  0  0  0  0  0  0  0  0
   -9.5467    4.9354   -2.2854 O   0  0  0  0  0  0  0  0  0  0  0  0
  -10.2578    3.7336   -4.0625 N   0  0  0  0  0  0  0  0  0  0  0  0
  -10.2045    3.2915   -5.3548 C   0  0  0  0  0  0  0  0  0  0  0  0
  -11.2523    3.1088   -5.9695 O   0  0  0  0  0  0  0  0  0  0  0  0
   -8.6641    4.8435   -7.6462 C   0  0  0  0  0  0  0  0  0  0  0  0
   -8.6693    5.8207   -6.9234 O   0  0  0  0  0  0  0  0  0  0  0  0
  1  2  1  0
  2  3  2  0
  3  4  1  0
  4  5  2  0
  5  6  1  0
  6  7  1  0
  7  8  2  0
  8  9  1  0
  9 10  2  0
 10 11  1  0
 10 12  1  0
 12 13  2  0
 13 14  1  0
 14 15  2  0
 14 16  1  0
 16 17  1  0
 17 18  2  0
 18 19  1  0
 19 20  2  0
 20 21  1  0
 21 22  2  0
 21 23  1  0
 23 24  1  0
 25 24  1  6
 25 26  1  0
 26 27  1  0
 27 28  1  0
 28 29  2  0
 28 30  1  0
 30 31  1  0
 31 32  2  0
 24 33  1  0
 33 34  2  0
  6  2  1  0
 13  7  1  0
 22 17  1  0
 31 25  1  0
 33 20  1  0
M  END
>  <name>  (33) 
P103194

>  <alias>  (33) 
None

>  <smina_score_min>  (33) 
-8.588

>  <exports>  (33) 
['/opt/xchem-fragalysis-2/maxwin/BulkDock/OUTPUTS/openbind_xx01zvns2b_c2_elabs_1LOUTNY.sdf', '/opt/xchem-fragalysis-2/maxwin/BulkDock/OUTPUTS/openbind_xx01zvns2b_c2_elabs_1LSYIIV.sdf']

>  <tags>  (33) 
syndirella_placed,openbind_xx01zvns2b_c2_elabs,openbind_xx01zvns2b_c2_elabs_scored_6.2plus,syndirella_product,openbind_xx01zvns2b_c2_elabs_scored,openbind_xx01zvns2b_c2_elabs_scored_top80percent,BulkDock Fragalysis export

>  <subsites>  (33) 
1 - Z4590/B/203/1

>  <smiles>  (33) 
Cc1nccn1-c1ccc(Cl)cc1C(=O)Nc1ccc2c(c1)CN([C@H]1CCC(=O)NC1=O)C2=O

>  <HIPPO Pose ID>  (33) 
103194

>  <energy_score>  (33) 
-36.666523

>  <inchikey>  (33) 
BETKCIGRKDQDCU-FQEVSTJZSA-N

>  <gnina_score_min>  (33) 
6.321

>  <gnina_score>  (33) 
6.438

>  <ref_mols>  (33) 
Z3546a

>  <HIPPO Compound ID>  (33) 
162298

>  <distance_score>  (33) 
0.692268

>  <rmsd(smina/fragmenstein)>  (33) 
0.519

>  <ref_pdb>  (33) 
Z3546a

>  <inspiration_score>  (33) 
None

$$$$
P103196
     RDKit          3D

 34 38  0  0  0  0  0  0  0  0999 V2000
   -4.0500    7.0018  -17.3394 C   0  0  0  0  0  0  0  0  0  0  0  0
   -3.9996    6.1976  -16.0898 C   0  0  0  0  0  0  0  0  0  0  0  0
   -2.9790    6.2236  -15.2507 N   0  0  0  0  0  0  0  0  0  0  0  0
   -3.3608    5.4807  -14.1744 C   0  0  0  0  0  0  0  0  0  0  0  0
   -4.6221    4.9770  -14.3583 C   0  0  0  0  0  0  0  0  0  0  0  0
   -5.0387    5.4095  -15.6014 N   0  0  0  0  0  0  0  0  0  0  0  0
   -6.2608    5.0496  -16.2377 C   0  0  0  0  0  0  0  0  0  0  0  0
   -6.2867    4.8111  -17.6165 C   0  0  0  0  0  0  0  0  0  0  0  0
   -7.4755    4.4213  -18.2394 C   0  0  0  0  0  0  0  0  0  0  0  0
   -8.6362    4.2533  -17.4924 C   0  0  0  0  0  0  0  0  0  0  0  0
  -10.1108    3.8702  -18.2687 Cl  0  0  0  0  0  0  0  0  0  0  0  0
   -8.6295    4.4662  -16.1222 C   0  0  0  0  0  0  0  0  0  0  0  0
   -7.4480    4.8808  -15.5033 C   0  0  0  0  0  0  0  0  0  0  0  0
   -7.5991    5.4572  -14.1586 C   0  0  0  0  0  0  0  0  0  0  0  0
   -7.4456    6.6097  -14.0515 O   0  0  0  0  0  0  0  0  0  0  0  0
   -7.9870    4.3964  -13.1047 N   0  0  0  0  0  0  0  0  0  0  0  0
   -8.1676    4.5122  -11.7321 C   0  0  0  0  0  0  0  0  0  0  0  0
   -8.0175    5.7874  -11.1501 C   0  0  0  0  0  0  0  0  0  0  0  0
   -8.1841    5.9763   -9.7907 C   0  0  0  0  0  0  0  0  0  0  0  0
   -8.4904    4.8600   -9.0527 C   0  0  0  0  0  0  0  0  0  0  0  0
   -8.6339    3.5773   -9.5848 C   0  0  0  0  0  0  0  0  0  0  0  0
   -8.4803    3.3873  -10.9494 C   0  0  0  0  0  0  0  0  0  0  0  0
   -8.9450    2.6176   -8.4754 C   0  0  0  0  0  0  0  0  0  0  0  0
   -8.8658    3.4923   -7.3020 N   0  0  0  0  0  0  0  0  0  0  0  0
   -8.8604    3.0041   -5.9351 C   0  0  1  0  0  0  0  0  0  0  0  0
   -7.6596    3.5661   -5.1553 C   0  0  0  0  0  0  0  0  0  0  0  0
   -7.9680    4.6191   -4.1112 C   0  0  2  0  0  0  0  0  0  0  0  0
   -6.8648    4.7578   -3.3181 F   0  0  0  0  0  0  0  0  0  0  0  0
   -9.1314    4.1651   -3.2621 C   0  0  0  0  0  0  0  0  0  0  0  0
  -10.2793    3.8722   -4.0733 N   0  0  0  0  0  0  0  0  0  0  0  0
  -10.2297    3.2442   -5.2857 C   0  0  0  0  0  0  0  0  0  0  0  0
  -11.2923    2.9310   -5.8172 O   0  0  0  0  0  0  0  0  0  0  0  0
   -8.6872    4.8117   -7.6173 C   0  0  0  0  0  0  0  0  0  0  0  0
   -8.6451    5.7811   -6.8839 O   0  0  0  0  0  0  0  0  0  0  0  0
  1  2  1  0
  2  3  2  0
  3  4  1  0
  4  5  2  0
  5  6  1  0
  6  7  1  0
  7  8  2  0
  8  9  1  0
  9 10  2  0
 10 11  1  0
 10 12  1  0
 12 13  2  0
 13 14  1  0
 14 15  2  0
 14 16  1  0
 16 17  1  0
 17 18  2  0
 18 19  1  0
 19 20  2  0
 20 21  1  0
 21 22  2  0
 21 23  1  0
 23 24  1  0
 25 24  1  6
 25 26  1  0
 26 27  1  0
 27 28  1  1
 27 29  1  0
 29 30  1  0
 30 31  1  0
 31 32  2  0
 24 33  1  0
 33 34  2  0
  6  2  1  0
 13  7  1  0
 22 17  1  0
 31 25  1  0
 33 20  1  0
M  END
>  <name>  (34) 
P103196

>  <alias>  (34) 
None

>  <smina_score_min>  (34) 
-8.415

>  <exports>  (34) 
['/opt/xchem-fragalysis-2/maxwin/BulkDock/OUTPUTS/openbind_xx01zvns2b_c2_elabs_1LOUTNY.sdf', '/opt/xchem-fragalysis-2/maxwin/BulkDock/OUTPUTS/openbind_xx01zvns2b_c2_elabs_1LSYIIV.sdf']

>  <tags>  (34) 
syndirella_placed,openbind_xx01zvns2b_c2_elabs,openbind_xx01zvns2b_c2_elabs_scored_6.2plus,syndirella_product,openbind_xx01zvns2b_c2_elabs_scored,openbind_xx01zvns2b_c2_elabs_scored_top80percent,BulkDock Fragalysis export

>  <subsites>  (34) 
1 - Z4590/B/203/1

>  <smiles>  (34) 
Cc1nccn1-c1ccc(Cl)cc1C(=O)Nc1ccc2c(c1)CN([C@H]1C[C@H](F)CNC1=O)C2=O

>  <HIPPO Pose ID>  (34) 
103196

>  <energy_score>  (34) 
-40.510087

>  <inchikey>  (34) 
ODPDKCCQMYITOX-KKSFZXQISA-N

>  <gnina_score_min>  (34) 
6.265

>  <gnina_score>  (34) 
6.421

>  <ref_mols>  (34) 
Z3546a

>  <HIPPO Compound ID>  (34) 
162299

>  <distance_score>  (34) 
0.663712

>  <rmsd(smina/fragmenstein)>  (34) 
0.614

>  <ref_pdb>  (34) 
Z3546a

>  <inspiration_score>  (34) 
None

$$$$
P103245
     RDKit          3D

 33 35  0  0  0  0  0  0  0  0999 V2000
   -5.4657    0.9506   -9.8961 C   0  0  0  0  0  0  0  0  0  0  0  0
   -6.3124    2.0647  -10.1520 N   0  0  0  0  0  0  0  0  0  0  0  0
   -7.5695    2.5677   -9.3971 C   0  0  0  0  0  0  0  0  0  0  0  0
   -8.1468    2.1029   -8.4976 O   0  0  0  0  0  0  0  0  0  0  0  0
   -8.0507    3.7916  -10.0413 C   0  0  0  0  0  0  0  0  0  0  0  0
   -8.0520    5.0070   -9.3705 C   0  0  0  0  0  0  0  0  0  0  0  0
   -7.8722    5.0753   -8.0447 F   0  0  0  0  0  0  0  0  0  0  0  0
   -8.1303    6.1964  -10.0945 C   0  0  0  0  0  0  0  0  0  0  0  0
   -8.1543    6.1590  -11.4923 C   0  0  0  0  0  0  0  0  0  0  0  0
   -8.2002    4.9278  -12.1436 C   0  0  0  0  0  0  0  0  0  0  0  0
   -8.0734    4.7982  -13.5147 N   0  0  0  0  0  0  0  0  0  0  0  0
   -7.4628    5.7487  -14.5543 C   0  0  0  0  0  0  0  0  0  0  0  0
   -7.0380    6.8259  -14.4346 O   0  0  0  0  0  0  0  0  0  0  0  0
   -7.5224    5.1367  -15.9020 C   0  0  0  0  0  0  0  0  0  0  0  0
   -8.7516    4.6790  -16.3693 C   0  0  0  0  0  0  0  0  0  0  0  0
   -8.8774    4.3372  -17.7063 C   0  0  0  0  0  0  0  0  0  0  0  0
  -10.4364    3.9861  -18.3105 Cl  0  0  0  0  0  0  0  0  0  0  0  0
   -7.7836    4.3929  -18.5638 C   0  0  0  0  0  0  0  0  0  0  0  0
   -6.5394    4.7944  -18.0750 C   0  0  0  0  0  0  0  0  0  0  0  0
   -5.4643    4.8228  -18.9560 N   0  0  0  0  0  0  0  0  0  0  0  0
   -4.0013    5.1990  -18.7260 C   0  0  0  0  0  0  0  0  0  0  0  0
   -3.4383    5.4732  -17.7467 O   0  0  0  0  0  0  0  0  0  0  0  0
   -3.4346    5.1609  -19.9614 O   0  0  0  0  0  0  0  0  0  0  0  0
   -2.0505    5.5312  -20.0276 C   0  0  0  0  0  0  0  0  0  0  0  0
   -1.9513    7.0120  -20.3012 C   0  0  0  0  0  0  0  0  0  0  0  0
   -1.8740    7.9295  -19.2435 C   0  0  0  0  0  0  0  0  0  0  0  0
   -1.8216    9.3009  -19.4964 C   0  0  0  0  0  0  0  0  0  0  0  0
   -1.8473    9.7689  -20.8087 C   0  0  0  0  0  0  0  0  0  0  0  0
   -1.9316    8.8666  -21.8680 C   0  0  0  0  0  0  0  0  0  0  0  0
   -1.9892    7.4947  -21.6161 C   0  0  0  0  0  0  0  0  0  0  0  0
   -6.4067    5.1782  -16.7409 C   0  0  0  0  0  0  0  0  0  0  0  0
   -8.2283    3.7501  -11.4142 C   0  0  0  0  0  0  0  0  0  0  0  0
   -8.1939    2.5845  -12.0816 F   0  0  0  0  0  0  0  0  0  0  0  0
  1  2  1  0
  2  3  1  0
  3  4  2  0
  3  5  1  0
  5  6  2  0
  6  7  1  0
  6  8  1  0
  8  9  2  0
  9 10  1  0
 10 11  1  0
 11 12  1  0
 12 13  2  0
 12 14  1  0
 14 15  2  0
 15 16  1  0
 16 17  1  0
 16 18  2  0
 18 19  1  0
 19 20  1  0
 20 21  1  0
 21 22  2  0
 21 23  1  0
 23 24  1  0
 24 25  1  0
 25 26  2  0
 26 27  1  0
 27 28  2  0
 28 29  1  0
 29 30  2  0
 19 31  2  0
 10 32  2  0
 32 33  1  0
 32  5  1  0
 31 14  1  0
 30 25  1  0
M  END
>  <name>  (35) 
P103245

>  <alias>  (35) 
None

>  <smina_score_min>  (35) 
-7.516

>  <exports>  (35) 
['/opt/xchem-fragalysis-2/maxwin/BulkDock/OUTPUTS/openbind_xx01zvns2b_c2_elabs_1LOUTNY.sdf', '/opt/xchem-fragalysis-2/maxwin/BulkDock/OUTPUTS/openbind_xx01zvns2b_c2_elabs_1LSYIIV.sdf']

>  <tags>  (35) 
syndirella_placed,openbind_xx01zvns2b_c2_elabs,openbind_xx01zvns2b_c2_elabs_scored_6.2plus,syndirella_product,openbind_xx01zvns2b_c2_elabs_scored,openbind_xx01zvns2b_c2_elabs_scored_top80percent,BulkDock Fragalysis export

>  <subsites>  (35) 
1 - Z4590/B/203/1

>  <smiles>  (35) 
CNC(=O)c1c(F)ccc(NC(=O)c2cc(Cl)cc(NC(=O)OCc3ccccc3)c2)c1F

>  <HIPPO Pose ID>  (35) 
103245

>  <energy_score>  (35) 
-13.111217

>  <inchikey>  (35) 
SXWNYSQCZAKEQT-UHFFFAOYSA-N

>  <gnina_score_min>  (35) 
6.27

>  <gnina_score>  (35) 
6.233

>  <ref_mols>  (35) 
Z2992a

>  <HIPPO Compound ID>  (35) 
162830

>  <distance_score>  (35) 
0.77295

>  <rmsd(smina/fragmenstein)>  (35) 
1.29

>  <ref_pdb>  (35) 
Z2992a

>  <inspiration_score>  (35) 
None

$$$$
P103286
     RDKit          3D

 34 37  0  0  0  0  0  0  0  0999 V2000
   -7.6259    7.5328  -12.3206 C   0  0  0  0  0  0  0  0  0  0  0  0
   -7.9071    6.2935  -11.5215 C   0  0  0  0  0  0  0  0  0  0  0  0
   -8.1663    6.4972  -10.1597 C   0  0  0  0  0  0  0  0  0  0  0  0
   -8.5521    5.4481   -9.3351 C   0  0  0  0  0  0  0  0  0  0  0  0
   -8.6321    4.1402   -9.8118 C   0  0  0  0  0  0  0  0  0  0  0  0
   -9.1640    3.0103   -8.9505 C   0  0  0  0  0  0  0  0  0  0  0  0
   -8.4627    2.6709   -7.7049 N   0  0  0  0  0  0  0  0  0  0  0  0
   -9.2788    1.6930   -6.9548 C   0  0  0  0  0  0  0  0  0  0  0  0
  -10.2091    2.5100   -6.0597 C   0  0  0  0  0  0  0  0  0  0  0  0
   -9.5580    3.8808   -5.9637 C   0  0  0  0  0  0  0  0  0  0  0  0
   -8.2393    3.7030   -6.6914 C   0  0  0  0  0  0  0  0  0  0  0  0
   -8.3707    3.9327  -11.1802 C   0  0  0  0  0  0  0  0  0  0  0  0
   -7.9985    4.9886  -12.0380 C   0  0  0  0  0  0  0  0  0  0  0  0
   -7.8278    4.6583  -13.3904 N   0  0  0  0  0  0  0  0  0  0  0  0
   -7.0701    5.4000  -14.5193 C   0  0  0  0  0  0  0  0  0  0  0  0
   -6.4057    6.3613  -14.4814 O   0  0  0  0  0  0  0  0  0  0  0  0
   -7.3276    4.8298  -15.8664 C   0  0  0  0  0  0  0  0  0  0  0  0
   -8.6241    4.5077  -16.2694 C   0  0  0  0  0  0  0  0  0  0  0  0
   -8.8718    4.2860  -17.6222 C   0  0  0  0  0  0  0  0  0  0  0  0
  -10.4837    4.0522  -18.1594 Cl  0  0  0  0  0  0  0  0  0  0  0  0
   -7.8483    4.3629  -18.5647 C   0  0  0  0  0  0  0  0  0  0  0  0
   -6.5522    4.6631  -18.1550 C   0  0  0  0  0  0  0  0  0  0  0  0
   -5.5536    4.7817  -19.1140 N   0  0  0  0  0  0  0  0  0  0  0  0
   -4.0488    5.0073  -18.9595 C   0  0  0  0  0  0  0  0  0  0  0  0
   -3.3875    5.0542  -18.0044 O   0  0  0  0  0  0  0  0  0  0  0  0
   -3.5784    5.1386  -20.2290 O   0  0  0  0  0  0  0  0  0  0  0  0
   -2.1799    5.4386  -20.3457 C   0  0  0  0  0  0  0  0  0  0  0  0
   -2.0164    6.9352  -20.4635 C   0  0  0  0  0  0  0  0  0  0  0  0
   -1.9188    7.7373  -19.3169 C   0  0  0  0  0  0  0  0  0  0  0  0
   -1.8103    9.1246  -19.4280 C   0  0  0  0  0  0  0  0  0  0  0  0
   -1.7985    9.7243  -20.6858 C   0  0  0  0  0  0  0  0  0  0  0  0
   -1.9012    8.9380  -21.8322 C   0  0  0  0  0  0  0  0  0  0  0  0
   -2.0153    7.5510  -21.7220 C   0  0  0  0  0  0  0  0  0  0  0  0
   -6.2906    4.8908  -16.8065 C   0  0  0  0  0  0  0  0  0  0  0  0
  1  2  1  0
  2  3  2  0
  3  4  1  0
  4  5  2  0
  5  6  1  0
  6  7  1  0
  7  8  1  0
  8  9  1  0
  9 10  1  0
 10 11  1  0
  5 12  1  0
 12 13  2  0
 13 14  1  0
 14 15  1  0
 15 16  2  0
 15 17  1  0
 17 18  2  0
 18 19  1  0
 19 20  1  0
 19 21  2  0
 21 22  1  0
 22 23  1  0
 23 24  1  0
 24 25  2  0
 24 26  1  0
 26 27  1  0
 27 28  1  0
 28 29  2  0
 29 30  1  0
 30 31  2  0
 31 32  1  0
 32 33  2  0
 22 34  2  0
 13  2  1  0
 34 17  1  0
 11  7  1  0
 33 28  1  0
M  END
>  <name>  (36) 
P103286

>  <alias>  (36) 
None

>  <smina_score_min>  (36) 
-7.701

>  <exports>  (36) 
['/opt/xchem-fragalysis-2/maxwin/BulkDock/OUTPUTS/openbind_xx01zvns2b_c2_elabs_1LOUTNY.sdf', '/opt/xchem-fragalysis-2/maxwin/BulkDock/OUTPUTS/openbind_xx01zvns2b_c2_elabs_1LSYIIV.sdf']

>  <tags>  (36) 
syndirella_placed,openbind_xx01zvns2b_c2_elabs,openbind_xx01zvns2b_c2_elabs_scored_6.2plus,syndirella_product,openbind_xx01zvns2b_c2_elabs_scored,openbind_xx01zvns2b_c2_elabs_scored_top80percent,BulkDock Fragalysis export

>  <subsites>  (36) 
1 - Z4590/B/203/1

>  <smiles>  (36) 
Cc1ccc(CN2CCCC2)cc1NC(=O)c1cc(Cl)cc(NC(=O)OCc2ccccc2)c1

>  <HIPPO Pose ID>  (36) 
103286

>  <energy_score>  (36) 
-20.813122

>  <inchikey>  (36) 
PGQKAPWNIFQQME-UHFFFAOYSA-N

>  <gnina_score_min>  (36) 
6.279

>  <gnina_score>  (36) 
6.098

>  <ref_mols>  (36) 
Z2992a

>  <HIPPO Compound ID>  (36) 
162904

>  <distance_score>  (36) 
0.472297

>  <rmsd(smina/fragmenstein)>  (36) 
0.844

>  <ref_pdb>  (36) 
Z2992a

>  <inspiration_score>  (36) 
None

$$$$
P103288
     RDKit          3D

 34 37  0  0  0  0  0  0  0  0999 V2000
   -9.7330    2.0205   -8.7831 C   0  0  0  0  0  0  0  0  0  0  0  0
   -8.5745    2.3850   -7.9967 N   0  0  0  0  0  0  0  0  0  0  0  0
   -8.9528    3.0621   -6.7687 C   0  0  0  0  0  0  0  0  0  0  0  0
   -7.4937    3.0162   -8.7546 C   0  0  1  0  0  0  0  0  0  0  0  0
   -6.6322    1.9471   -9.4617 C   0  0  0  0  0  0  0  0  0  0  0  0
   -6.4841    2.1286  -10.9625 C   0  0  0  0  0  0  0  0  0  0  0  0
   -7.6345    2.6860  -11.5910 O   0  0  0  0  0  0  0  0  0  0  0  0
   -7.8761    3.9307  -11.0659 C   0  0  0  0  0  0  0  0  0  0  0  0
   -7.9931    5.0040  -11.9445 C   0  0  0  0  0  0  0  0  0  0  0  0
   -7.8824    4.7806  -13.3084 N   0  0  0  0  0  0  0  0  0  0  0  0
   -7.4760    5.7302  -14.4459 C   0  0  0  0  0  0  0  0  0  0  0  0
   -7.2434    6.8719  -14.4303 O   0  0  0  0  0  0  0  0  0  0  0  0
   -7.4915    5.0525  -15.7602 C   0  0  0  0  0  0  0  0  0  0  0  0
   -8.7206    4.6023  -16.2399 C   0  0  0  0  0  0  0  0  0  0  0  0
   -8.8439    4.2996  -17.5886 C   0  0  0  0  0  0  0  0  0  0  0  0
  -10.3958    3.9674  -18.2300 Cl  0  0  0  0  0  0  0  0  0  0  0  0
   -7.7482    4.3840  -18.4423 C   0  0  0  0  0  0  0  0  0  0  0  0
   -6.5057    4.7774  -17.9426 C   0  0  0  0  0  0  0  0  0  0  0  0
   -5.4405    4.8463  -18.8326 N   0  0  0  0  0  0  0  0  0  0  0  0
   -3.9665    5.1673  -18.5939 C   0  0  0  0  0  0  0  0  0  0  0  0
   -3.3857    5.3516  -17.6042 O   0  0  0  0  0  0  0  0  0  0  0  0
   -3.4114    5.1714  -19.8347 O   0  0  0  0  0  0  0  0  0  0  0  0
   -2.0228    5.5200  -19.9064 C   0  0  0  0  0  0  0  0  0  0  0  0
   -1.9155    6.9939  -20.2106 C   0  0  0  0  0  0  0  0  0  0  0  0
   -1.8930    7.4468  -21.5367 C   0  0  0  0  0  0  0  0  0  0  0  0
   -1.8323    8.8131  -21.8169 C   0  0  0  0  0  0  0  0  0  0  0  0
   -1.8042    9.7391  -20.7752 C   0  0  0  0  0  0  0  0  0  0  0  0
   -1.8383    9.3006  -19.4527 C   0  0  0  0  0  0  0  0  0  0  0  0
   -1.8951    7.9350  -19.1713 C   0  0  0  0  0  0  0  0  0  0  0  0
   -6.3757    5.1287  -16.5994 C   0  0  0  0  0  0  0  0  0  0  0  0
   -8.1414    6.2970  -11.4448 C   0  0  0  0  0  0  0  0  0  0  0  0
   -8.2167    6.5105  -10.0697 C   0  0  0  0  0  0  0  0  0  0  0  0
   -8.0795    5.4383   -9.1919 C   0  0  0  0  0  0  0  0  0  0  0  0
   -7.8705    4.1423   -9.6837 C   0  0  0  0  0  0  0  0  0  0  0  0
  1  2  1  0
  2  3  1  0
  4  2  1  6
  4  5  1  0
  5  6  1  0
  6  7  1  0
  7  8  1  0
  8  9  2  0
  9 10  1  0
 10 11  1  0
 11 12  2  0
 11 13  1  0
 13 14  2  0
 14 15  1  0
 15 16  1  0
 15 17  2  0
 17 18  1  0
 18 19  1  0
 19 20  1  0
 20 21  2  0
 20 22  1  0
 22 23  1  0
 23 24  1  0
 24 25  2  0
 25 26  1  0
 26 27  2  0
 27 28  1  0
 28 29  2  0
 18 30  2  0
  9 31  1  0
 31 32  2  0
 32 33  1  0
 33 34  2  0
 34  4  1  0
 34  8  1  0
 30 13  1  0
 29 24  1  0
M  END
>  <name>  (37) 
P103288

>  <alias>  (37) 
None

>  <smina_score_min>  (37) 
-7.446

>  <exports>  (37) 
['/opt/xchem-fragalysis-2/maxwin/BulkDock/OUTPUTS/openbind_xx01zvns2b_c2_elabs_1LOUTNY.sdf', '/opt/xchem-fragalysis-2/maxwin/BulkDock/OUTPUTS/openbind_xx01zvns2b_c2_elabs_1LSYIIV.sdf']

>  <tags>  (37) 
syndirella_placed,openbind_xx01zvns2b_c2_elabs,openbind_xx01zvns2b_c2_elabs_scored_6.2plus,syndirella_product,openbind_xx01zvns2b_c2_elabs_scored,openbind_xx01zvns2b_c2_elabs_scored_top80percent,BulkDock Fragalysis export

>  <subsites>  (37) 
1 - Z4590/B/203/1

>  <smiles>  (37) 
CN(C)[C@H]1CCOc2c(NC(=O)c3cc(Cl)cc(NC(=O)OCc4ccccc4)c3)cccc21

>  <HIPPO Pose ID>  (37) 
103288

>  <energy_score>  (37) 
-14.479382

>  <inchikey>  (37) 
PHGJLHBSACHVAO-QHCPKHFHSA-N

>  <gnina_score_min>  (37) 
6.217

>  <gnina_score>  (37) 
6.3

>  <ref_mols>  (37) 
Z2992a

>  <HIPPO Compound ID>  (37) 
162905

>  <distance_score>  (37) 
0.659633

>  <rmsd(smina/fragmenstein)>  (37) 
1.246

>  <ref_pdb>  (37) 
Z2992a

>  <inspiration_score>  (37) 
None

$$$$
P103291
     RDKit          3D

 34 37  0  0  0  0  0  0  0  0999 V2000
   -3.3038    5.3173  -17.8681 O   0  0  0  0  0  0  0  0  0  0  0  0
   -3.9212    5.1409  -18.8368 C   0  0  0  0  0  0  0  0  0  0  0  0
   -5.4222    4.9308  -19.0310 N   0  0  0  0  0  0  0  0  0  0  0  0
   -6.4443    4.8024  -18.0984 C   0  0  0  0  0  0  0  0  0  0  0  0
   -7.7085    4.4126  -18.5384 C   0  0  0  0  0  0  0  0  0  0  0  0
   -8.7607    4.3272  -17.6307 C   0  0  0  0  0  0  0  0  0  0  0  0
  -10.3413    3.9822  -18.1983 Cl  0  0  0  0  0  0  0  0  0  0  0  0
   -8.5715    4.6313  -16.2868 C   0  0  0  0  0  0  0  0  0  0  0  0
   -7.3100    5.0523  -15.8584 C   0  0  0  0  0  0  0  0  0  0  0  0
   -7.1525    5.6677  -14.5151 C   0  0  0  0  0  0  0  0  0  0  0  0
   -6.6580    6.7194  -14.4518 O   0  0  0  0  0  0  0  0  0  0  0  0
   -7.7891    4.8008  -13.4220 N   0  0  0  0  0  0  0  0  0  0  0  0
   -8.0390    5.0813  -12.0349 C   0  0  2  0  0  0  0  0  0  0  0  0
   -7.4708    6.4036  -11.5102 C   0  0  0  0  0  0  0  0  0  0  0  0
   -7.6377    6.5717   -9.9856 C   0  0  0  0  0  0  0  0  0  0  0  0
   -8.5295    5.5033   -9.3419 C   0  0  0  0  0  0  0  0  0  0  0  0
   -8.0705    4.1316   -9.7550 C   0  0  0  0  0  0  0  0  0  0  0  0
   -7.9585    3.0874   -8.8436 C   0  0  0  0  0  0  0  0  0  0  0  0
   -7.2328    1.9605   -9.2082 C   0  0  0  0  0  0  0  0  0  0  0  0
   -6.6083    1.9111  -10.4593 C   0  0  0  0  0  0  0  0  0  0  0  0
   -5.5699    0.9150  -10.7149 N   0  0  0  0  0  0  0  0  0  0  0  0
   -5.6196   -0.1722  -10.1173 O   0  0  0  0  0  0  0  0  0  0  0  0
   -4.6561    1.2617  -11.4790 O   0  0  0  0  0  0  0  0  0  0  0  0
   -6.8741    2.8720  -11.4376 C   0  0  0  0  0  0  0  0  0  0  0  0
   -7.6615    3.9669  -11.0959 C   0  0  0  0  0  0  0  0  0  0  0  0
   -6.2426    5.1229  -16.7572 C   0  0  0  0  0  0  0  0  0  0  0  0
   -3.4005    5.1207  -20.0930 O   0  0  0  0  0  0  0  0  0  0  0  0
   -2.0131    5.4711  -20.1939 C   0  0  0  0  0  0  0  0  0  0  0  0
   -1.9059    6.9637  -20.3994 C   0  0  0  0  0  0  0  0  0  0  0  0
   -1.9678    7.5077  -21.6892 C   0  0  0  0  0  0  0  0  0  0  0  0
   -1.9120    8.8898  -21.8785 C   0  0  0  0  0  0  0  0  0  0  0  0
   -1.8061    9.7422  -20.7805 C   0  0  0  0  0  0  0  0  0  0  0  0
   -1.7560    9.2138  -19.4922 C   0  0  0  0  0  0  0  0  0  0  0  0
   -1.8053    7.8319  -19.3023 C   0  0  0  0  0  0  0  0  0  0  0  0
  1  2  2  0
  2  3  1  0
  3  4  1  0
  4  5  2  0
  5  6  1  0
  6  7  1  0
  6  8  2  0
  8  9  1  0
  9 10  1  0
 10 11  2  0
 10 12  1  0
 13 12  1  6
 13 14  1  0
 14 15  1  0
 15 16  1  0
 16 17  1  0
 17 18  2  0
 18 19  1  0
 19 20  2  0
 20 21  1  0
 21 22  2  0
 21 23  1  0
 20 24  1  0
 24 25  2  0
  9 26  2  0
  2 27  1  0
 27 28  1  0
 28 29  1  0
 29 30  2  0
 30 31  1  0
 31 32  2  0
 32 33  1  0
 33 34  2  0
 26  4  1  0
 34 29  1  0
 25 13  1  0
 25 17  1  0
M  CHG  2  21   1  23  -1
M  END
>  <name>  (38) 
P103291

>  <alias>  (38) 
None

>  <smina_score_min>  (38) 
-8.06

>  <exports>  (38) 
['/opt/xchem-fragalysis-2/maxwin/BulkDock/OUTPUTS/openbind_xx01zvns2b_c2_elabs_1LOUTNY.sdf', '/opt/xchem-fragalysis-2/maxwin/BulkDock/OUTPUTS/openbind_xx01zvns2b_c2_elabs_1LSYIIV.sdf']

>  <tags>  (38) 
syndirella_placed,openbind_xx01zvns2b_c2_elabs,openbind_xx01zvns2b_c2_elabs_scored_6.2plus,syndirella_product,openbind_xx01zvns2b_c2_elabs_scored,openbind_xx01zvns2b_c2_elabs_scored_top80percent,BulkDock Fragalysis export

>  <subsites>  (38) 
1 - Z4590/B/203/1

>  <smiles>  (38) 
O=C(Nc1cc(Cl)cc(C(=O)N[C@@H]2CCCc3ccc([N+](=O)[O-])cc32)c1)OCc1ccccc1

>  <HIPPO Pose ID>  (38) 
103291

>  <energy_score>  (38) 
-3.520912

>  <inchikey>  (38) 
UXNINWXHBFGPFJ-HSZRJFAPSA-N

>  <gnina_score_min>  (38) 
6.34

>  <gnina_score>  (38) 
6.304

>  <ref_mols>  (38) 
Z2992a

>  <HIPPO Compound ID>  (38) 
162911

>  <distance_score>  (38) 
0.674684

>  <rmsd(smina/fragmenstein)>  (38) 
1.949

>  <ref_pdb>  (38) 
Z2992a

>  <inspiration_score>  (38) 
None

$$$$
P103314
     RDKit          3D

 34 37  0  0  0  0  0  0  0  0999 V2000
   -4.9816    3.8546   -9.1192 C   0  0  0  0  0  0  0  0  0  0  0  0
   -5.1518    2.6203   -9.9985 C   0  0  0  0  0  0  0  0  0  0  0  0
   -4.8901    2.9705  -11.4636 C   0  0  0  0  0  0  0  0  0  0  0  0
   -6.4483    1.7993   -9.7676 C   0  0  0  0  0  0  0  0  0  0  0  0
   -7.8126    2.3051   -9.8713 N   0  0  0  0  0  0  0  0  0  0  0  0
   -8.2471    3.3007   -8.8895 C   0  0  0  0  0  0  0  0  0  0  0  0
   -8.3207    4.5700   -9.6772 C   0  0  0  0  0  0  0  0  0  0  0  0
   -8.3477    5.8717   -9.2209 C   0  0  0  0  0  0  0  0  0  0  0  0
   -8.2340    6.8888  -10.1662 C   0  0  0  0  0  0  0  0  0  0  0  0
   -8.0859    6.5897  -11.5333 C   0  0  0  0  0  0  0  0  0  0  0  0
   -8.0984    5.2691  -11.9842 C   0  0  0  0  0  0  0  0  0  0  0  0
   -7.8866    4.9557  -13.3205 N   0  0  0  0  0  0  0  0  0  0  0  0
   -7.3282    5.8117  -14.4726 C   0  0  0  0  0  0  0  0  0  0  0  0
   -6.8857    6.8908  -14.4670 O   0  0  0  0  0  0  0  0  0  0  0  0
   -7.4356    5.1169  -15.7799 C   0  0  0  0  0  0  0  0  0  0  0  0
   -8.6817    4.6754  -16.2236 C   0  0  0  0  0  0  0  0  0  0  0  0
   -8.8345    4.3343  -17.5638 C   0  0  0  0  0  0  0  0  0  0  0  0
  -10.3994    3.9910  -18.1730 Cl  0  0  0  0  0  0  0  0  0  0  0  0
   -7.7565    4.3849  -18.4443 C   0  0  0  0  0  0  0  0  0  0  0  0
   -6.4988    4.7670  -17.9797 C   0  0  0  0  0  0  0  0  0  0  0  0
   -5.4439    4.7990  -18.8851 N   0  0  0  0  0  0  0  0  0  0  0  0
   -3.9731    5.1622  -18.6843 C   0  0  0  0  0  0  0  0  0  0  0  0
   -3.3858    5.4200  -17.7149 O   0  0  0  0  0  0  0  0  0  0  0  0
   -3.4354    5.1390  -19.9332 O   0  0  0  0  0  0  0  0  0  0  0  0
   -2.0526    5.5080  -20.0268 C   0  0  0  0  0  0  0  0  0  0  0  0
   -1.9569    6.9891  -20.3009 C   0  0  0  0  0  0  0  0  0  0  0  0
   -1.9947    7.4719  -21.6159 C   0  0  0  0  0  0  0  0  0  0  0  0
   -1.9394    8.8439  -21.8679 C   0  0  0  0  0  0  0  0  0  0  0  0
   -1.8575    9.7465  -20.8086 C   0  0  0  0  0  0  0  0  0  0  0  0
   -1.8321    9.2786  -19.4963 C   0  0  0  0  0  0  0  0  0  0  0  0
   -1.8821    7.9071  -19.2434 C   0  0  0  0  0  0  0  0  0  0  0  0
   -6.3367    5.1397  -16.6466 C   0  0  0  0  0  0  0  0  0  0  0  0
   -8.2404    4.2720  -11.0437 C   0  0  0  0  0  0  0  0  0  0  0  0
   -8.1959    2.7934  -11.1980 C   0  0  0  0  0  0  0  0  0  0  0  0
  1  2  1  0
  2  3  1  0
  2  4  1  0
  4  5  1  0
  5  6  1  0
  6  7  1  0
  7  8  2  0
  8  9  1  0
  9 10  2  0
 10 11  1  0
 11 12  1  0
 12 13  1  0
 13 14  2  0
 13 15  1  0
 15 16  2  0
 16 17  1  0
 17 18  1  0
 17 19  2  0
 19 20  1  0
 20 21  1  0
 21 22  1  0
 22 23  2  0
 22 24  1  0
 24 25  1  0
 25 26  1  0
 26 27  2  0
 27 28  1  0
 28 29  2  0
 29 30  1  0
 30 31  2  0
 20 32  2  0
 11 33  2  0
 33 34  1  0
 34  5  1  0
 33  7  1  0
 32 15  1  0
 31 26  1  0
M  END
>  <name>  (39) 
P103314

>  <alias>  (39) 
None

>  <smina_score_min>  (39) 
-7.4

>  <exports>  (39) 
['/opt/xchem-fragalysis-2/maxwin/BulkDock/OUTPUTS/openbind_xx01zvns2b_c2_elabs_1LOUTNY.sdf', '/opt/xchem-fragalysis-2/maxwin/BulkDock/OUTPUTS/openbind_xx01zvns2b_c2_elabs_1LSYIIV.sdf']

>  <tags>  (39) 
syndirella_placed,openbind_xx01zvns2b_c2_elabs,openbind_xx01zvns2b_c2_elabs_scored_6.2plus,syndirella_product,openbind_xx01zvns2b_c2_elabs_scored,openbind_xx01zvns2b_c2_elabs_scored_top80percent,BulkDock Fragalysis export

>  <subsites>  (39) 
1 - Z4590/B/203/1

>  <smiles>  (39) 
CC(C)CN1Cc2cccc(NC(=O)c3cc(Cl)cc(NC(=O)OCc4ccccc4)c3)c2C1

>  <HIPPO Pose ID>  (39) 
103314

>  <energy_score>  (39) 
-22.665879

>  <inchikey>  (39) 
GVUUILTWKSDQMH-UHFFFAOYSA-N

>  <gnina_score_min>  (39) 
6.39

>  <gnina_score>  (39) 
6.398

>  <ref_mols>  (39) 
Z2992a

>  <HIPPO Compound ID>  (39) 
162946

>  <distance_score>  (39) 
0.702394

>  <rmsd(smina/fragmenstein)>  (39) 
1.387

>  <ref_pdb>  (39) 
Z2992a

>  <inspiration_score>  (39) 
None

$$$$
P103344
     RDKit          3D

 35 37  0  0  0  0  0  0  0  0999 V2000
   -3.5339    5.2398  -17.7291 O   0  0  0  0  0  0  0  0  0  0  0  0
   -4.1686    5.1345  -18.6970 C   0  0  0  0  0  0  0  0  0  0  0  0
   -5.6610    4.8583  -18.8787 N   0  0  0  0  0  0  0  0  0  0  0  0
   -6.6813    4.7488  -17.9394 C   0  0  0  0  0  0  0  0  0  0  0  0
   -7.9709    4.5082  -18.4022 C   0  0  0  0  0  0  0  0  0  0  0  0
   -9.0165    4.3568  -17.4958 C   0  0  0  0  0  0  0  0  0  0  0  0
  -10.6030    4.1261  -18.1054 Cl  0  0  0  0  0  0  0  0  0  0  0  0
   -8.7963    4.4368  -16.1215 C   0  0  0  0  0  0  0  0  0  0  0  0
   -7.5047    4.6728  -15.6541 C   0  0  0  0  0  0  0  0  0  0  0  0
   -7.1534    4.6870  -14.2003 C   0  0  0  0  0  0  0  0  0  0  0  0
   -6.3931    5.4858  -13.8293 O   0  0  0  0  0  0  0  0  0  0  0  0
   -7.8221    3.5257  -13.4510 N   0  0  0  0  0  0  0  0  0  0  0  0
   -7.6236    3.0364  -12.0964 C   0  0  2  0  0  0  0  0  0  0  0  0
   -8.1827    3.8229  -10.9328 C   0  0  0  0  0  0  0  0  0  0  0  0
   -7.9663    5.1876  -10.7291 C   0  0  0  0  0  0  0  0  0  0  0  0
   -8.2097    5.7463   -9.4722 C   0  0  0  0  0  0  0  0  0  0  0  0
   -8.6483    4.9486   -8.4096 C   0  0  0  0  0  0  0  0  0  0  0  0
   -8.9043    3.5925   -8.6142 C   0  0  0  0  0  0  0  0  0  0  0  0
   -9.3638    2.7404   -7.5114 N   0  0  0  0  0  0  0  0  0  0  0  0
   -9.3939    3.2510   -6.3792 O   0  0  0  0  0  0  0  0  0  0  0  0
   -9.7697    1.6003   -7.7771 O   0  0  0  0  0  0  0  0  0  0  0  0
   -8.7043    3.0458   -9.8730 C   0  0  0  0  0  0  0  0  0  0  0  0
   -6.1565    2.6737  -11.8034 C   0  0  0  0  0  0  0  0  0  0  0  0
   -6.0157    1.9694  -10.6567 F   0  0  0  0  0  0  0  0  0  0  0  0
   -5.3460    3.7522  -11.7142 F   0  0  0  0  0  0  0  0  0  0  0  0
   -5.6659    1.8860  -12.8004 F   0  0  0  0  0  0  0  0  0  0  0  0
   -6.4481    4.8369  -16.5675 C   0  0  0  0  0  0  0  0  0  0  0  0
   -3.6751    5.2295  -19.9608 O   0  0  0  0  0  0  0  0  0  0  0  0
   -2.2697    5.4967  -20.0708 C   0  0  0  0  0  0  0  0  0  0  0  0
   -2.0786    6.9755  -20.3002 C   0  0  0  0  0  0  0  0  0  0  0  0
   -2.0471    7.4958  -21.6010 C   0  0  0  0  0  0  0  0  0  0  0  0
   -1.9038    8.8685  -21.8109 C   0  0  0  0  0  0  0  0  0  0  0  0
   -1.8007    9.7346  -20.7233 C   0  0  0  0  0  0  0  0  0  0  0  0
   -1.8420    9.2294  -19.4250 C   0  0  0  0  0  0  0  0  0  0  0  0
   -1.9815    7.8569  -19.2139 C   0  0  0  0  0  0  0  0  0  0  0  0
  1  2  2  0
  2  3  1  0
  3  4  1  0
  4  5  2  0
  5  6  1  0
  6  7  1  0
  6  8  2  0
  8  9  1  0
  9 10  1  0
 10 11  2  0
 10 12  1  0
 13 12  1  6
 13 14  1  0
 14 15  2  0
 15 16  1  0
 16 17  2  0
 17 18  1  0
 18 19  1  0
 19 20  2  0
 19 21  1  0
 18 22  2  0
 13 23  1  0
 23 24  1  0
 23 25  1  0
 23 26  1  0
  9 27  2  0
  2 28  1  0
 28 29  1  0
 29 30  1  0
 30 31  2  0
 31 32  1  0
 32 33  2  0
 33 34  1  0
 34 35  2  0
 27  4  1  0
 35 30  1  0
 22 14  1  0
M  CHG  2  19   1  21  -1
M  END
>  <name>  (40) 
P103344

>  <alias>  (40) 
None

>  <smina_score_min>  (40) 
-8.094

>  <exports>  (40) 
['/opt/xchem-fragalysis-2/maxwin/BulkDock/OUTPUTS/openbind_xx01zvns2b_c2_elabs_1LOUTNY.sdf', '/opt/xchem-fragalysis-2/maxwin/BulkDock/OUTPUTS/openbind_xx01zvns2b_c2_elabs_1LSYIIV.sdf']

>  <tags>  (40) 
syndirella_placed,openbind_xx01zvns2b_c2_elabs,openbind_xx01zvns2b_c2_elabs_scored_6.2plus,syndirella_product,openbind_xx01zvns2b_c2_elabs_scored,openbind_xx01zvns2b_c2_elabs_scored_top80percent,BulkDock Fragalysis export

>  <subsites>  (40) 
1 - Z4590/B/203/1

>  <smiles>  (40) 
O=C(Nc1cc(Cl)cc(C(=O)N[C@H](c2cccc([N+](=O)[O-])c2)C(F)(F)F)c1)OCc1ccccc1

>  <HIPPO Pose ID>  (40) 
103344

>  <energy_score>  (40) 
-16.989275

>  <inchikey>  (40) 
FWVQLNSEUGNISE-HXUWFJFHSA-N

>  <gnina_score_min>  (40) 
6.317

>  <gnina_score>  (40) 
6.212

>  <ref_mols>  (40) 
Z2992a

>  <HIPPO Compound ID>  (40) 
162992

>  <distance_score>  (40) 
0.943774

>  <rmsd(smina/fragmenstein)>  (40) 
1.097

>  <ref_pdb>  (40) 
Z2992a

>  <inspiration_score>  (40) 
None

$$$$
P103346
     RDKit          3D

 35 37  0  0  0  0  0  0  0  0999 V2000
   -5.0032    0.6065  -10.6470 C   0  0  0  0  0  0  0  0  0  0  0  0
   -5.8773    1.7344  -10.5743 N   0  0  0  0  0  0  0  0  0  0  0  0
   -6.9548    2.2353  -11.5637 C   0  0  0  0  0  0  0  0  0  0  0  0
   -7.2432    1.8496  -12.6268 O   0  0  0  0  0  0  0  0  0  0  0  0
   -7.6403    3.4513  -11.0006 C   0  0  0  0  0  0  0  0  0  0  0  0
   -7.9430    3.4594   -9.6280 C   0  0  0  0  0  0  0  0  0  0  0  0
   -8.2746    4.6629   -9.0212 C   0  0  0  0  0  0  0  0  0  0  0  0
   -8.4751    4.7123   -7.5754 N   0  0  0  0  0  0  0  0  0  0  0  0
   -8.0993    5.7359   -6.9864 O   0  0  0  0  0  0  0  0  0  0  0  0
   -9.0067    3.7387   -7.0273 O   0  0  0  0  0  0  0  0  0  0  0  0
   -8.3700    5.8387   -9.7688 C   0  0  0  0  0  0  0  0  0  0  0  0
   -8.2043    5.8159  -11.1700 C   0  0  0  0  0  0  0  0  0  0  0  0
   -8.4932    7.1063  -11.8862 C   0  0  0  0  0  0  0  0  0  0  0  0
   -7.8288    4.6073  -11.8019 C   0  0  0  0  0  0  0  0  0  0  0  0
   -7.7431    4.4695  -13.1996 N   0  0  0  0  0  0  0  0  0  0  0  0
   -7.3033    5.4810  -14.2839 C   0  0  0  0  0  0  0  0  0  0  0  0
   -7.0168    6.6101  -14.1947 O   0  0  0  0  0  0  0  0  0  0  0  0
   -7.3638    4.9006  -15.6463 C   0  0  0  0  0  0  0  0  0  0  0  0
   -8.6151    4.5128  -16.1351 C   0  0  0  0  0  0  0  0  0  0  0  0
   -8.7678    4.2885  -17.4988 C   0  0  0  0  0  0  0  0  0  0  0  0
  -10.3279    3.9870  -18.1460 Cl  0  0  0  0  0  0  0  0  0  0  0  0
   -7.6847    4.4058  -18.3645 C   0  0  0  0  0  0  0  0  0  0  0  0
   -6.4275    4.7506  -17.8651 C   0  0  0  0  0  0  0  0  0  0  0  0
   -5.3784    4.8461  -18.7717 N   0  0  0  0  0  0  0  0  0  0  0  0
   -3.8983    5.1487  -18.5491 C   0  0  0  0  0  0  0  0  0  0  0  0
   -3.2981    5.2922  -17.5644 O   0  0  0  0  0  0  0  0  0  0  0  0
   -3.3681    5.1926  -19.7995 O   0  0  0  0  0  0  0  0  0  0  0  0
   -1.9807    5.5396  -19.8900 C   0  0  0  0  0  0  0  0  0  0  0  0
   -1.8836    7.0146  -20.1911 C   0  0  0  0  0  0  0  0  0  0  0  0
   -1.8570    7.4704  -21.5161 C   0  0  0  0  0  0  0  0  0  0  0  0
   -1.8069    8.8376  -21.7931 C   0  0  0  0  0  0  0  0  0  0  0  0
   -1.7933    9.7616  -20.7493 C   0  0  0  0  0  0  0  0  0  0  0  0
   -1.8316    9.3200  -19.4279 C   0  0  0  0  0  0  0  0  0  0  0  0
   -1.8782    7.9533  -19.1495 C   0  0  0  0  0  0  0  0  0  0  0  0
   -6.2658    5.0165  -16.5050 C   0  0  0  0  0  0  0  0  0  0  0  0
  1  2  1  0
  2  3  1  0
  3  4  2  0
  3  5  1  0
  5  6  2  0
  6  7  1  0
  7  8  1  0
  8  9  2  0
  8 10  1  0
  7 11  2  0
 11 12  1  0
 12 13  1  0
 12 14  2  0
 14 15  1  0
 15 16  1  0
 16 17  2  0
 16 18  1  0
 18 19  2  0
 19 20  1  0
 20 21  1  0
 20 22  2  0
 22 23  1  0
 23 24  1  0
 24 25  1  0
 25 26  2  0
 25 27  1  0
 27 28  1  0
 28 29  1  0
 29 30  2  0
 30 31  1  0
 31 32  2  0
 32 33  1  0
 33 34  2  0
 23 35  2  0
 14  5  1  0
 35 18  1  0
 34 29  1  0
M  CHG  2   8   1  10  -1
M  END
>  <name>  (41) 
P103346

>  <alias>  (41) 
None

>  <smina_score_min>  (41) 
-7.54

>  <exports>  (41) 
['/opt/xchem-fragalysis-2/maxwin/BulkDock/OUTPUTS/openbind_xx01zvns2b_c2_elabs_1LOUTNY.sdf', '/opt/xchem-fragalysis-2/maxwin/BulkDock/OUTPUTS/openbind_xx01zvns2b_c2_elabs_1LSYIIV.sdf']

>  <tags>  (41) 
syndirella_placed,openbind_xx01zvns2b_c2_elabs,openbind_xx01zvns2b_c2_elabs_scored_6.2plus,syndirella_product,openbind_xx01zvns2b_c2_elabs_scored,openbind_xx01zvns2b_c2_elabs_scored_top80percent,BulkDock Fragalysis export

>  <subsites>  (41) 
1 - Z4590/B/203/1

>  <smiles>  (41) 
CNC(=O)c1cc([N+](=O)[O-])cc(C)c1NC(=O)c1cc(Cl)cc(NC(=O)OCc2ccccc2)c1

>  <HIPPO Pose ID>  (41) 
103346

>  <energy_score>  (41) 
-29.520528

>  <inchikey>  (41) 
JCCBYBJGTSQXPJ-UHFFFAOYSA-N

>  <gnina_score_min>  (41) 
6.291

>  <gnina_score>  (41) 
6.376

>  <ref_mols>  (41) 
Z2992a

>  <HIPPO Compound ID>  (41) 
162993

>  <distance_score>  (41) 
0.784916

>  <rmsd(smina/fragmenstein)>  (41) 
1.266

>  <ref_pdb>  (41) 
Z2992a

>  <inspiration_score>  (41) 
None

$$$$
P103350
     RDKit          3D

 35 38  0  0  0  0  0  0  0  0999 V2000
   -6.7549    2.2039  -12.0015 C   0  0  0  0  0  0  0  0  0  0  0  0
   -6.8774    3.7113  -12.1562 C   0  0  1  0  0  0  0  0  0  0  0  0
   -7.2647    3.9833  -13.5180 N   0  0  0  0  0  0  0  0  0  0  0  0
   -6.9328    5.1680  -14.4289 C   0  0  0  0  0  0  0  0  0  0  0  0
   -6.3572    6.1538  -14.2050 O   0  0  0  0  0  0  0  0  0  0  0  0
   -7.3607    4.9056  -15.8264 C   0  0  0  0  0  0  0  0  0  0  0  0
   -8.6570    4.5506  -16.1883 C   0  0  0  0  0  0  0  0  0  0  0  0
   -8.9386    4.3621  -17.5429 C   0  0  0  0  0  0  0  0  0  0  0  0
  -10.5467    4.0607  -18.0603 Cl  0  0  0  0  0  0  0  0  0  0  0  0
   -7.9473    4.4944  -18.5171 C   0  0  0  0  0  0  0  0  0  0  0  0
   -6.6504    4.8233  -18.1430 C   0  0  0  0  0  0  0  0  0  0  0  0
   -5.6714    4.9630  -19.1183 N   0  0  0  0  0  0  0  0  0  0  0  0
   -4.1600    5.1626  -18.9887 C   0  0  0  0  0  0  0  0  0  0  0  0
   -3.4983    5.3192  -18.0456 O   0  0  0  0  0  0  0  0  0  0  0  0
   -3.6871    5.1821  -20.2651 O   0  0  0  0  0  0  0  0  0  0  0  0
   -2.2831    5.4582  -20.3938 C   0  0  0  0  0  0  0  0  0  0  0  0
   -2.0796    6.9493  -20.5277 C   0  0  0  0  0  0  0  0  0  0  0  0
   -2.1246    7.5590  -21.7879 C   0  0  0  0  0  0  0  0  0  0  0  0
   -1.9750    8.9416  -21.9122 C   0  0  0  0  0  0  0  0  0  0  0  0
   -1.7913    9.7303  -20.7776 C   0  0  0  0  0  0  0  0  0  0  0  0
   -1.7549    9.1373  -19.5176 C   0  0  0  0  0  0  0  0  0  0  0  0
   -1.8965    7.7543  -19.3932 C   0  0  0  0  0  0  0  0  0  0  0  0
   -6.3589    5.0289  -16.7991 C   0  0  0  0  0  0  0  0  0  0  0  0
   -7.6821    4.3835  -11.0637 C   0  0  0  0  0  0  0  0  0  0  0  0
   -7.6415    5.7706  -10.9149 C   0  0  0  0  0  0  0  0  0  0  0  0
   -8.1052    6.3537   -9.7422 C   0  0  0  0  0  0  0  0  0  0  0  0
   -8.5942    5.5606   -8.7020 C   0  0  0  0  0  0  0  0  0  0  0  0
   -8.7081    4.1795   -8.8306 C   0  0  0  0  0  0  0  0  0  0  0  0
   -9.1974    3.3614   -7.7817 N   0  0  0  0  0  0  0  0  0  0  0  0
   -9.3139    1.9302   -7.9196 C   0  0  0  0  0  0  0  0  0  0  0  0
   -9.5973    1.4491   -6.5226 C   0  0  0  0  0  0  0  0  0  0  0  0
  -10.3137    2.5946   -5.8537 C   0  0  0  0  0  0  0  0  0  0  0  0
   -9.7757    3.7981   -6.5783 C   0  0  0  0  0  0  0  0  0  0  0  0
   -9.9371    4.9357   -6.1547 O   0  0  0  0  0  0  0  0  0  0  0  0
   -8.2821    3.6190  -10.0383 C   0  0  0  0  0  0  0  0  0  0  0  0
  2  1  1  1
  2  3  1  0
  3  4  1  0
  4  5  2  0
  4  6  1  0
  6  7  2  0
  7  8  1  0
  8  9  1  0
  8 10  2  0
 10 11  1  0
 11 12  1  0
 12 13  1  0
 13 14  2  0
 13 15  1  0
 15 16  1  0
 16 17  1  0
 17 18  2  0
 18 19  1  0
 19 20  2  0
 20 21  1  0
 21 22  2  0
 11 23  2  0
  2 24  1  0
 24 25  2  0
 25 26  1  0
 26 27  2  0
 27 28  1  0
 28 29  1  0
 29 30  1  0
 30 31  1  0
 31 32  1  0
 32 33  1  0
 33 34  2  0
 28 35  2  0
 23  6  1  0
 35 24  1  0
 22 17  1  0
 33 29  1  0
M  END
>  <name>  (42) 
P103350

>  <alias>  (42) 
None

>  <smina_score_min>  (42) 
-8.265

>  <exports>  (42) 
['/opt/xchem-fragalysis-2/maxwin/BulkDock/OUTPUTS/openbind_xx01zvns2b_c2_elabs_1LOUTNY.sdf', '/opt/xchem-fragalysis-2/maxwin/BulkDock/OUTPUTS/openbind_xx01zvns2b_c2_elabs_1LSYIIV.sdf']

>  <tags>  (42) 
syndirella_placed,openbind_xx01zvns2b_c2_elabs,openbind_xx01zvns2b_c2_elabs_scored_6.2plus,syndirella_product,openbind_xx01zvns2b_c2_elabs_scored,openbind_xx01zvns2b_c2_elabs_scored_top80percent,BulkDock Fragalysis export

>  <subsites>  (42) 
1 - Z4590/B/203/1

>  <smiles>  (42) 
C[C@@H](NC(=O)c1cc(Cl)cc(NC(=O)OCc2ccccc2)c1)c1cccc(N2CCCC2=O)c1

>  <HIPPO Pose ID>  (42) 
103350

>  <energy_score>  (42) 
-31.877607

>  <inchikey>  (42) 
MDADESGNTKOFAF-GOSISDBHSA-N

>  <gnina_score_min>  (42) 
6.342

>  <gnina_score>  (42) 
6.184

>  <ref_mols>  (42) 
Z2992a

>  <HIPPO Compound ID>  (42) 
162998

>  <distance_score>  (42) 
1.015096

>  <rmsd(smina/fragmenstein)>  (42) 
1.215

>  <ref_pdb>  (42) 
Z2992a

>  <inspiration_score>  (42) 
None

$$$$
P103351
     RDKit          3D

 35 38  0  0  0  0  0  0  0  0999 V2000
   -7.4534    8.3000  -12.0561 C   0  0  0  0  0  0  0  0  0  0  0  0
   -8.4636    7.3323  -12.3367 O   0  0  0  0  0  0  0  0  0  0  0  0
   -8.3507    6.2198  -11.5422 C   0  0  0  0  0  0  0  0  0  0  0  0
   -8.4260    6.3437  -10.1514 C   0  0  0  0  0  0  0  0  0  0  0  0
   -8.3878    5.2062   -9.3490 C   0  0  0  0  0  0  0  0  0  0  0  0
   -8.3450    3.9334   -9.9338 C   0  0  0  0  0  0  0  0  0  0  0  0
   -7.9849    2.7261   -9.0972 C   0  0  0  0  0  0  0  0  0  0  0  0
   -6.5650    2.3681   -9.2019 N   0  0  0  0  0  0  0  0  0  0  0  0
   -5.5885    3.4468   -9.1264 C   0  0  0  0  0  0  0  0  0  0  0  0
   -4.2845    2.7322   -9.4287 C   0  0  0  0  0  0  0  0  0  0  0  0
   -4.6770    1.7224  -10.4917 C   0  0  0  0  0  0  0  0  0  0  0  0
   -6.1627    1.4549  -10.2601 C   0  0  0  0  0  0  0  0  0  0  0  0
   -8.4138    3.8141  -11.3258 C   0  0  0  0  0  0  0  0  0  0  0  0
   -8.3226    4.9483  -12.1296 C   0  0  0  0  0  0  0  0  0  0  0  0
   -8.0948    4.7145  -13.4831 N   0  0  0  0  0  0  0  0  0  0  0  0
   -7.3937    5.5867  -14.5479 C   0  0  0  0  0  0  0  0  0  0  0  0
   -6.8294    6.6033  -14.4417 O   0  0  0  0  0  0  0  0  0  0  0  0
   -7.5217    4.9999  -15.9013 C   0  0  0  0  0  0  0  0  0  0  0  0
   -8.7736    4.5944  -16.3534 C   0  0  0  0  0  0  0  0  0  0  0  0
   -8.9416    4.3128  -17.7014 C   0  0  0  0  0  0  0  0  0  0  0  0
  -10.5230    4.0236  -18.2835 Cl  0  0  0  0  0  0  0  0  0  0  0  0
   -7.8726    4.3891  -18.5900 C   0  0  0  0  0  0  0  0  0  0  0  0
   -6.6116    4.7598  -18.1249 C   0  0  0  0  0  0  0  0  0  0  0  0
   -5.5711    4.8763  -19.0386 N   0  0  0  0  0  0  0  0  0  0  0  0
   -4.0825    5.1486  -18.8203 C   0  0  0  0  0  0  0  0  0  0  0  0
   -3.4960    5.3958  -17.8476 O   0  0  0  0  0  0  0  0  0  0  0  0
   -3.5307    5.1055  -20.0633 O   0  0  0  0  0  0  0  0  0  0  0  0
   -2.1382    5.4454  -20.1376 C   0  0  0  0  0  0  0  0  0  0  0  0
   -2.0022    6.9315  -20.3707 C   0  0  0  0  0  0  0  0  0  0  0  0
   -1.8911    7.8183  -19.2896 C   0  0  0  0  0  0  0  0  0  0  0  0
   -1.8068    9.1947  -19.5053 C   0  0  0  0  0  0  0  0  0  0  0  0
   -1.8322    9.6991  -20.8038 C   0  0  0  0  0  0  0  0  0  0  0  0
   -1.9482    8.8283  -21.8862 C   0  0  0  0  0  0  0  0  0  0  0  0
   -2.0387    7.4517  -21.6711 C   0  0  0  0  0  0  0  0  0  0  0  0
   -6.4333    5.0650  -16.7771 C   0  0  0  0  0  0  0  0  0  0  0  0
  1  2  1  0
  2  3  1  0
  3  4  2  0
  4  5  1  0
  5  6  2  0
  6  7  1  0
  7  8  1  0
  8  9  1  0
  9 10  1  0
 10 11  1  0
 11 12  1  0
  6 13  1  0
 13 14  2  0
 14 15  1  0
 15 16  1  0
 16 17  2  0
 16 18  1  0
 18 19  2  0
 19 20  1  0
 20 21  1  0
 20 22  2  0
 22 23  1  0
 23 24  1  0
 24 25  1  0
 25 26  2  0
 25 27  1  0
 27 28  1  0
 28 29  1  0
 29 30  2  0
 30 31  1  0
 31 32  2  0
 32 33  1  0
 33 34  2  0
 23 35  2  0
 14  3  1  0
 35 18  1  0
 12  8  1  0
 34 29  1  0
M  END
>  <name>  (43) 
P103351

>  <alias>  (43) 
None

>  <smina_score_min>  (43) 
-7.144

>  <exports>  (43) 
['/opt/xchem-fragalysis-2/maxwin/BulkDock/OUTPUTS/openbind_xx01zvns2b_c2_elabs_1LOUTNY.sdf', '/opt/xchem-fragalysis-2/maxwin/BulkDock/OUTPUTS/openbind_xx01zvns2b_c2_elabs_1LSYIIV.sdf']

>  <tags>  (43) 
syndirella_placed,openbind_xx01zvns2b_c2_elabs,openbind_xx01zvns2b_c2_elabs_scored_6.2plus,syndirella_product,openbind_xx01zvns2b_c2_elabs_scored,openbind_xx01zvns2b_c2_elabs_scored_top80percent,BulkDock Fragalysis export

>  <subsites>  (43) 
1 - Z4590/B/203/1

>  <smiles>  (43) 
COc1ccc(CN2CCCC2)cc1NC(=O)c1cc(Cl)cc(NC(=O)OCc2ccccc2)c1

>  <HIPPO Pose ID>  (43) 
103351

>  <energy_score>  (43) 
-33.593175

>  <inchikey>  (43) 
JRFIYFLJGXCUAZ-UHFFFAOYSA-N

>  <gnina_score_min>  (43) 
6.308

>  <gnina_score>  (43) 
6.403

>  <ref_mols>  (43) 
Z2992a

>  <HIPPO Compound ID>  (43) 
162999

>  <distance_score>  (43) 
0.609794

>  <rmsd(smina/fragmenstein)>  (43) 
1.207

>  <ref_pdb>  (43) 
Z2992a

>  <inspiration_score>  (43) 
None

$$$$
P103354
     RDKit          3D

 35 38  0  0  0  0  0  0  0  0999 V2000
   -8.8058    3.2739   -7.3170 C   0  0  0  0  0  0  0  0  0  0  0  0
   -8.0844    2.9815   -8.5667 C   0  0  0  0  0  0  0  0  0  0  0  0
   -7.6035    1.7710   -8.8521 C   0  0  0  0  0  0  0  0  0  0  0  0
   -7.0525    1.7745  -10.0914 N   0  0  0  0  0  0  0  0  0  0  0  0
   -7.2772    3.0076  -10.6991 C   0  0  0  0  0  0  0  0  0  0  0  0
   -6.9576    3.2421  -11.8532 O   0  0  0  0  0  0  0  0  0  0  0  0
   -7.8935    3.8134   -9.6677 N   0  0  0  0  0  0  0  0  0  0  0  0
   -8.1816    5.1863   -9.8440 C   0  0  0  0  0  0  0  0  0  0  0  0
   -8.3153    6.0781   -8.7766 C   0  0  0  0  0  0  0  0  0  0  0  0
   -8.5486    7.4376   -9.0052 C   0  0  0  0  0  0  0  0  0  0  0  0
   -8.6342    7.9230  -10.3088 C   0  0  0  0  0  0  0  0  0  0  0  0
   -8.4993    7.0529  -11.3969 C   0  0  0  0  0  0  0  0  0  0  0  0
   -8.5735    7.5883  -12.7962 C   0  0  0  0  0  0  0  0  0  0  0  0
   -8.3680    6.6361  -13.8626 N   0  0  0  0  0  0  0  0  0  0  0  0
   -7.0718    5.9786  -14.3840 C   0  0  0  0  0  0  0  0  0  0  0  0
   -5.9784    6.0437  -13.9848 O   0  0  0  0  0  0  0  0  0  0  0  0
   -7.2998    5.2209  -15.6751 C   0  0  0  0  0  0  0  0  0  0  0  0
   -8.5367    4.7135  -16.0887 C   0  0  0  0  0  0  0  0  0  0  0  0
   -8.7163    4.3581  -17.4297 C   0  0  0  0  0  0  0  0  0  0  0  0
  -10.2836    3.9711  -18.0216 Cl  0  0  0  0  0  0  0  0  0  0  0  0
   -7.6682    4.4329  -18.3429 C   0  0  0  0  0  0  0  0  0  0  0  0
   -6.4101    4.8362  -17.9118 C   0  0  0  0  0  0  0  0  0  0  0  0
   -5.3819    4.9059  -18.8445 N   0  0  0  0  0  0  0  0  0  0  0  0
   -3.9004    5.2355  -18.6670 C   0  0  0  0  0  0  0  0  0  0  0  0
   -3.3119    5.5774  -17.7250 O   0  0  0  0  0  0  0  0  0  0  0  0
   -3.3643    5.1175  -19.9120 O   0  0  0  0  0  0  0  0  0  0  0  0
   -1.9887    5.5055  -20.0330 C   0  0  0  0  0  0  0  0  0  0  0  0
   -1.9128    6.9852  -20.3277 C   0  0  0  0  0  0  0  0  0  0  0  0
   -2.0210    7.4534  -21.6437 C   0  0  0  0  0  0  0  0  0  0  0  0
   -1.9867    8.8230  -21.9127 C   0  0  0  0  0  0  0  0  0  0  0  0
   -1.8568    9.7381  -20.8689 C   0  0  0  0  0  0  0  0  0  0  0  0
   -1.7611    9.2851  -19.5549 C   0  0  0  0  0  0  0  0  0  0  0  0
   -1.7882    7.9161  -19.2858 C   0  0  0  0  0  0  0  0  0  0  0  0
   -6.2258    5.2204  -16.5841 C   0  0  0  0  0  0  0  0  0  0  0  0
   -8.2962    5.6985  -11.1385 C   0  0  0  0  0  0  0  0  0  0  0  0
  1  2  1  0
  2  3  2  0
  3  4  1  0
  4  5  1  0
  5  6  2  0
  5  7  1  0
  7  8  1  0
  8  9  2  0
  9 10  1  0
 10 11  2  0
 11 12  1  0
 12 13  1  0
 13 14  1  0
 14 15  1  0
 15 16  2  0
 15 17  1  0
 17 18  2  0
 18 19  1  0
 19 20  1  0
 19 21  2  0
 21 22  1  0
 22 23  1  0
 23 24  1  0
 24 25  2  0
 24 26  1  0
 26 27  1  0
 27 28  1  0
 28 29  2  0
 29 30  1  0
 30 31  2  0
 31 32  1  0
 32 33  2  0
 22 34  2  0
 12 35  2  0
  7  2  1  0
 35  8  1  0
 34 17  1  0
 33 28  1  0
M  END
>  <name>  (44) 
P103354

>  <alias>  (44) 
None

>  <smina_score_min>  (44) 
-7.193

>  <exports>  (44) 
['/opt/xchem-fragalysis-2/maxwin/BulkDock/OUTPUTS/openbind_xx01zvns2b_c2_elabs_1LOUTNY.sdf', '/opt/xchem-fragalysis-2/maxwin/BulkDock/OUTPUTS/openbind_xx01zvns2b_c2_elabs_1LSYIIV.sdf']

>  <tags>  (44) 
syndirella_placed,openbind_xx01zvns2b_c2_elabs,openbind_xx01zvns2b_c2_elabs_scored_6.2plus,syndirella_product,openbind_xx01zvns2b_c2_elabs_scored,openbind_xx01zvns2b_c2_elabs_scored_top80percent,BulkDock Fragalysis export

>  <subsites>  (44) 
1 - Z4590/B/203/1

>  <smiles>  (44) 
Cc1c[nH]c(=O)n1-c1cccc(CNC(=O)c2cc(Cl)cc(NC(=O)OCc3ccccc3)c2)c1

>  <HIPPO Pose ID>  (44) 
103354

>  <energy_score>  (44) 
-1.087449

>  <inchikey>  (44) 
YHMZQPXASTUQHD-UHFFFAOYSA-N

>  <gnina_score_min>  (44) 
6.206

>  <gnina_score>  (44) 
6.188

>  <ref_mols>  (44) 
Z2992a

>  <HIPPO Compound ID>  (44) 
163004

>  <distance_score>  (44) 
1.03817

>  <rmsd(smina/fragmenstein)>  (44) 
1.847

>  <ref_pdb>  (44) 
Z2992a

>  <inspiration_score>  (44) 
None

$$$$
P103369
     RDKit          3D

 35 38  0  0  0  0  0  0  0  0999 V2000
   -3.2196    5.2826  -18.0537 O   0  0  0  0  0  0  0  0  0  0  0  0
   -3.8600    5.0522  -18.9961 C   0  0  0  0  0  0  0  0  0  0  0  0
   -5.3500    4.7345  -19.1293 N   0  0  0  0  0  0  0  0  0  0  0  0
   -6.3607    4.7246  -18.1746 C   0  0  0  0  0  0  0  0  0  0  0  0
   -7.6486    4.3549  -18.5484 C   0  0  0  0  0  0  0  0  0  0  0  0
   -8.6735    4.3799  -17.6049 C   0  0  0  0  0  0  0  0  0  0  0  0
  -10.2755    4.0104  -18.1085 Cl  0  0  0  0  0  0  0  0  0  0  0  0
   -8.4434    4.8239  -16.3001 C   0  0  0  0  0  0  0  0  0  0  0  0
   -7.1612    5.2581  -15.9454 C   0  0  0  0  0  0  0  0  0  0  0  0
   -6.8972    6.1109  -14.7373 C   0  0  0  0  0  0  0  0  0  0  0  0
   -6.0980    6.9481  -14.8544 O   0  0  0  0  0  0  0  0  0  0  0  0
   -7.8225    5.7801  -13.5651 N   0  0  0  0  0  0  0  0  0  0  0  0
   -8.0322    6.4636  -12.3207 C   0  0  0  0  0  0  0  0  0  0  0  0
   -7.7237    5.5858  -11.1496 C   0  0  0  0  0  0  0  0  0  0  0  0
   -8.5574    5.5848  -10.0301 C   0  0  0  0  0  0  0  0  0  0  0  0
   -8.3447    4.6860   -8.9890 C   0  0  0  0  0  0  0  0  0  0  0  0
   -7.2533    3.8253   -9.0311 C   0  0  0  0  0  0  0  0  0  0  0  0
   -6.3387    3.9101  -10.0795 C   0  0  0  0  0  0  0  0  0  0  0  0
   -5.1770    3.1535  -10.0234 N   0  0  0  0  0  0  0  0  0  0  0  0
   -3.9474    3.1206  -10.9729 C   0  0  0  0  0  0  0  0  0  0  0  0
   -3.7590    3.6702  -11.9906 O   0  0  0  0  0  0  0  0  0  0  0  0
   -2.8778    2.1981  -10.3068 C   0  0  0  0  0  0  0  0  0  0  0  0
   -3.1142    0.6738  -10.3944 C   0  0  0  0  0  0  0  0  0  0  0  0
   -2.1715    0.6507  -11.6119 C   0  0  0  0  0  0  0  0  0  0  0  0
   -1.5477    1.9480  -11.0708 C   0  0  0  0  0  0  0  0  0  0  0  0
   -6.5802    4.7774  -11.1395 C   0  0  0  0  0  0  0  0  0  0  0  0
   -6.1150    5.1493  -16.8714 C   0  0  0  0  0  0  0  0  0  0  0  0
   -3.3808    5.0650  -20.2700 O   0  0  0  0  0  0  0  0  0  0  0  0
   -2.0067    5.4589  -20.3985 C   0  0  0  0  0  0  0  0  0  0  0  0
   -1.9282    6.9617  -20.5405 C   0  0  0  0  0  0  0  0  0  0  0  0
   -2.0412    7.5595  -21.8021 C   0  0  0  0  0  0  0  0  0  0  0  0
   -2.0026    8.9490  -21.9340 C   0  0  0  0  0  0  0  0  0  0  0  0
   -1.8645    9.7557  -20.8055 C   0  0  0  0  0  0  0  0  0  0  0  0
   -1.7644    9.1738  -19.5437 C   0  0  0  0  0  0  0  0  0  0  0  0
   -1.7943    7.7846  -19.4120 C   0  0  0  0  0  0  0  0  0  0  0  0
  1  2  2  0
  2  3  1  0
  3  4  1  0
  4  5  2  0
  5  6  1  0
  6  7  1  0
  6  8  2  0
  8  9  1  0
  9 10  1  0
 10 11  2  0
 10 12  1  0
 12 13  1  0
 13 14  1  0
 14 15  2  0
 15 16  1  0
 16 17  2  0
 17 18  1  0
 18 19  1  0
 19 20  1  0
 20 21  2  0
 20 22  1  0
 22 23  1  0
 23 24  1  0
 24 25  1  0
 18 26  2  0
  9 27  2  0
  2 28  1  0
 28 29  1  0
 29 30  1  0
 30 31  2  0
 31 32  1  0
 32 33  2  0
 33 34  1  0
 34 35  2  0
 27  4  1  0
 35 30  1  0
 26 14  1  0
 25 22  1  0
M  END
>  <name>  (45) 
P103369

>  <alias>  (45) 
None

>  <smina_score_min>  (45) 
-7.171

>  <exports>  (45) 
['/opt/xchem-fragalysis-2/maxwin/BulkDock/OUTPUTS/openbind_xx01zvns2b_c2_elabs_1LOUTNY.sdf', '/opt/xchem-fragalysis-2/maxwin/BulkDock/OUTPUTS/openbind_xx01zvns2b_c2_elabs_1LSYIIV.sdf']

>  <tags>  (45) 
syndirella_placed,openbind_xx01zvns2b_c2_elabs,openbind_xx01zvns2b_c2_elabs_scored_6.2plus,syndirella_product,openbind_xx01zvns2b_c2_elabs_scored,openbind_xx01zvns2b_c2_elabs_scored_top80percent,BulkDock Fragalysis export

>  <subsites>  (45) 
1 - Z4590/B/203/1

>  <smiles>  (45) 
O=C(Nc1cc(Cl)cc(C(=O)NCc2cccc(NC(=O)C3CCC3)c2)c1)OCc1ccccc1

>  <HIPPO Pose ID>  (45) 
103369

>  <energy_score>  (45) 
-24.311739

>  <inchikey>  (45) 
ITFYQJZCEWXXSE-UHFFFAOYSA-N

>  <gnina_score_min>  (45) 
6.292

>  <gnina_score>  (45) 
6.246

>  <ref_mols>  (45) 
Z2992a

>  <HIPPO Compound ID>  (45) 
163025

>  <distance_score>  (45) 
1.402304

>  <rmsd(smina/fragmenstein)>  (45) 
1.204

>  <ref_pdb>  (45) 
Z2992a

>  <inspiration_score>  (45) 
None

$$$$
P103371
     RDKit          3D

 35 38  0  0  0  0  0  0  0  0999 V2000
   -6.6845    2.1262  -11.9811 C   0  0  0  0  0  0  0  0  0  0  0  0
   -6.7122    3.6374  -12.1750 C   0  0  1  0  0  0  0  0  0  0  0  0
   -7.1044    3.9277  -13.5425 N   0  0  0  0  0  0  0  0  0  0  0  0
   -6.6688    4.9393  -14.4444 C   0  0  0  0  0  0  0  0  0  0  0  0
   -5.9247    5.8622  -14.2842 O   0  0  0  0  0  0  0  0  0  0  0  0
   -7.1506    4.7490  -15.8435 C   0  0  0  0  0  0  0  0  0  0  0  0
   -8.4785    4.4627  -16.1644 C   0  0  0  0  0  0  0  0  0  0  0  0
   -8.8292    4.3460  -17.5104 C   0  0  0  0  0  0  0  0  0  0  0  0
  -10.4621    4.0866  -17.9736 Cl  0  0  0  0  0  0  0  0  0  0  0  0
   -7.8820    4.5026  -18.5219 C   0  0  0  0  0  0  0  0  0  0  0  0
   -6.5597    4.7868  -18.2014 C   0  0  0  0  0  0  0  0  0  0  0  0
   -5.6445    4.9522  -19.2369 N   0  0  0  0  0  0  0  0  0  0  0  0
   -4.2394    5.1279  -19.2172 C   0  0  0  0  0  0  0  0  0  0  0  0
   -3.4811    5.2585  -18.3046 O   0  0  0  0  0  0  0  0  0  0  0  0
   -3.8461    5.1566  -20.5217 O   0  0  0  0  0  0  0  0  0  0  0  0
   -2.4402    5.3530  -20.7431 C   0  0  0  0  0  0  0  0  0  0  0  0
   -2.1575    6.8300  -20.8784 C   0  0  0  0  0  0  0  0  0  0  0  0
   -2.3666    7.4854  -22.0991 C   0  0  0  0  0  0  0  0  0  0  0  0
   -2.1352    8.8575  -22.2148 C   0  0  0  0  0  0  0  0  0  0  0  0
   -1.7035    9.5894  -21.1095 C   0  0  0  0  0  0  0  0  0  0  0  0
   -1.5035    8.9504  -19.8875 C   0  0  0  0  0  0  0  0  0  0  0  0
   -1.7300    7.5781  -19.7722 C   0  0  0  0  0  0  0  0  0  0  0  0
   -6.1961    4.9076  -16.8631 C   0  0  0  0  0  0  0  0  0  0  0  0
   -7.4650    4.4287  -11.1149 C   0  0  0  0  0  0  0  0  0  0  0  0
   -7.4280    5.8309  -11.1540 C   0  0  0  0  0  0  0  0  0  0  0  0
   -7.9038    6.5881  -10.0882 C   0  0  0  0  0  0  0  0  0  0  0  0
   -8.3940    5.9545   -8.9485 C   0  0  0  0  0  0  0  0  0  0  0  0
   -8.4756    4.5585   -8.8780 C   0  0  0  0  0  0  0  0  0  0  0  0
   -8.9031    3.9339   -7.6832 N   0  0  0  0  0  0  0  0  0  0  0  0
   -8.8795    4.5936   -6.3999 C   0  0  0  0  0  0  0  0  0  0  0  0
   -8.8754    3.4395   -5.4162 C   0  0  0  0  0  0  0  0  0  0  0  0
   -9.4924    2.3734   -6.1467 N   0  0  0  0  0  0  0  0  0  0  0  0
   -9.3322    2.6028   -7.5203 C   0  0  0  0  0  0  0  0  0  0  0  0
   -9.5622    1.7480   -8.3563 O   0  0  0  0  0  0  0  0  0  0  0  0
   -8.0458    3.8124   -9.9841 C   0  0  0  0  0  0  0  0  0  0  0  0
  2  1  1  1
  2  3  1  0
  3  4  1  0
  4  5  2  0
  4  6  1  0
  6  7  2  0
  7  8  1  0
  8  9  1  0
  8 10  2  0
 10 11  1  0
 11 12  1  0
 12 13  1  0
 13 14  2  0
 13 15  1  0
 15 16  1  0
 16 17  1  0
 17 18  2  0
 18 19  1  0
 19 20  2  0
 20 21  1  0
 21 22  2  0
 11 23  2  0
  2 24  1  0
 24 25  2  0
 25 26  1  0
 26 27  2  0
 27 28  1  0
 28 29  1  0
 29 30  1  0
 30 31  1  0
 31 32  1  0
 32 33  1  0
 33 34  2  0
 28 35  2  0
 23  6  1  0
 35 24  1  0
 22 17  1  0
 33 29  1  0
M  END
>  <name>  (46) 
P103371

>  <alias>  (46) 
None

>  <smina_score_min>  (46) 
-8.067

>  <exports>  (46) 
['/opt/xchem-fragalysis-2/maxwin/BulkDock/OUTPUTS/openbind_xx01zvns2b_c2_elabs_1LOUTNY.sdf', '/opt/xchem-fragalysis-2/maxwin/BulkDock/OUTPUTS/openbind_xx01zvns2b_c2_elabs_1LSYIIV.sdf']

>  <tags>  (46) 
syndirella_placed,openbind_xx01zvns2b_c2_elabs,openbind_xx01zvns2b_c2_elabs_scored_6.2plus,syndirella_product,openbind_xx01zvns2b_c2_elabs_scored,openbind_xx01zvns2b_c2_elabs_scored_top80percent,BulkDock Fragalysis export

>  <subsites>  (46) 
1 - Z4590/B/203/1

>  <smiles>  (46) 
C[C@@H](NC(=O)c1cc(Cl)cc(NC(=O)OCc2ccccc2)c1)c1cccc(N2CCNC2=O)c1

>  <HIPPO Pose ID>  (46) 
103371

>  <energy_score>  (46) 
-21.691408

>  <inchikey>  (46) 
YDAAXFIUYQEADS-QGZVFWFLSA-N

>  <gnina_score_min>  (46) 
6.205

>  <gnina_score>  (46) 
5.956

>  <ref_mols>  (46) 
Z2992a

>  <HIPPO Compound ID>  (46) 
163030

>  <distance_score>  (46) 
1.210308

>  <rmsd(smina/fragmenstein)>  (46) 
1.174

>  <ref_pdb>  (46) 
Z2992a

>  <inspiration_score>  (46) 
None

$$$$
P103375
     RDKit          3D

 35 38  0  0  0  0  0  0  0  0999 V2000
   -7.6582    7.4255   -5.9466 C   0  0  0  0  0  0  0  0  0  0  0  0
   -7.6696    7.0462   -7.3246 O   0  0  0  0  0  0  0  0  0  0  0  0
   -8.4497    5.9903   -7.6548 C   0  0  0  0  0  0  0  0  0  0  0  0
   -9.1518    5.3240   -6.9136 O   0  0  0  0  0  0  0  0  0  0  0  0
   -8.2840    5.7129   -9.0984 C   0  0  0  0  0  0  0  0  0  0  0  0
   -8.0950    6.7479  -10.0290 C   0  0  0  0  0  0  0  0  0  0  0  0
   -7.8937    6.4711  -11.3962 C   0  0  0  0  0  0  0  0  0  0  0  0
   -7.8691    5.1570  -11.8605 C   0  0  0  0  0  0  0  0  0  0  0  0
   -7.6624    4.8593  -13.2031 N   0  0  0  0  0  0  0  0  0  0  0  0
   -7.2547    5.7674  -14.3779 C   0  0  0  0  0  0  0  0  0  0  0  0
   -6.9525    6.8941  -14.3935 O   0  0  0  0  0  0  0  0  0  0  0  0
   -7.3581    5.0756  -15.6872 C   0  0  0  0  0  0  0  0  0  0  0  0
   -8.6050    4.6323  -16.1335 C   0  0  0  0  0  0  0  0  0  0  0  0
   -8.7643    4.3253  -17.4832 C   0  0  0  0  0  0  0  0  0  0  0  0
  -10.3263    3.9794  -18.1062 Cl  0  0  0  0  0  0  0  0  0  0  0  0
   -7.6929    4.4143  -18.3697 C   0  0  0  0  0  0  0  0  0  0  0  0
   -6.4380    4.8047  -17.9052 C   0  0  0  0  0  0  0  0  0  0  0  0
   -5.3982    4.9010  -18.8219 N   0  0  0  0  0  0  0  0  0  0  0  0
   -3.9174    5.2150  -18.6147 C   0  0  0  0  0  0  0  0  0  0  0  0
   -3.3386    5.5199  -17.6540 O   0  0  0  0  0  0  0  0  0  0  0  0
   -3.3676    5.1258  -19.8555 O   0  0  0  0  0  0  0  0  0  0  0  0
   -1.9893    5.5083  -19.9576 C   0  0  0  0  0  0  0  0  0  0  0  0
   -1.9112    6.9835  -20.2702 C   0  0  0  0  0  0  0  0  0  0  0  0
   -1.8297    7.9285  -19.2370 C   0  0  0  0  0  0  0  0  0  0  0  0
   -1.8003    9.2938  -19.5241 C   0  0  0  0  0  0  0  0  0  0  0  0
   -1.8524    9.7287  -20.8468 C   0  0  0  0  0  0  0  0  0  0  0  0
   -1.9405    8.7992  -21.8821 C   0  0  0  0  0  0  0  0  0  0  0  0
   -1.9758    7.4332  -21.5957 C   0  0  0  0  0  0  0  0  0  0  0  0
   -6.2690    5.1427  -16.5636 C   0  0  0  0  0  0  0  0  0  0  0  0
   -8.0549    4.1610  -10.9215 C   0  0  0  0  0  0  0  0  0  0  0  0
   -8.2832    4.4105   -9.5634 C   0  0  0  0  0  0  0  0  0  0  0  0
   -8.4225    3.1231   -8.8232 C   0  0  0  0  0  0  0  0  0  0  0  0
   -8.0770    2.1721   -9.8417 N   0  0  0  0  0  0  0  0  0  0  0  0
   -7.9087    2.7212  -11.0890 C   0  0  0  0  0  0  0  0  0  0  0  0
   -7.6452    2.1701  -12.1409 O   0  0  0  0  0  0  0  0  0  0  0  0
  1  2  1  0
  2  3  1  0
  3  4  2  0
  3  5  1  0
  5  6  2  0
  6  7  1  0
  7  8  2  0
  8  9  1  0
  9 10  1  0
 10 11  2  0
 10 12  1  0
 12 13  2  0
 13 14  1  0
 14 15  1  0
 14 16  2  0
 16 17  1  0
 17 18  1  0
 18 19  1  0
 19 20  2  0
 19 21  1  0
 21 22  1  0
 22 23  1  0
 23 24  2  0
 24 25  1  0
 25 26  2  0
 26 27  1  0
 27 28  2  0
 17 29  2  0
  8 30  1  0
 30 31  2  0
 31 32  1  0
 32 33  1  0
 33 34  1  0
 34 35  2  0
 31  5  1  0
 29 12  1  0
 34 30  1  0
 28 23  1  0
M  END
>  <name>  (47) 
P103375

>  <alias>  (47) 
None

>  <smina_score_min>  (47) 
-8.192

>  <exports>  (47) 
['/opt/xchem-fragalysis-2/maxwin/BulkDock/OUTPUTS/openbind_xx01zvns2b_c2_elabs_1LOUTNY.sdf', '/opt/xchem-fragalysis-2/maxwin/BulkDock/OUTPUTS/openbind_xx01zvns2b_c2_elabs_1LSYIIV.sdf']

>  <tags>  (47) 
syndirella_placed,openbind_xx01zvns2b_c2_elabs,openbind_xx01zvns2b_c2_elabs_scored_6.2plus,syndirella_product,openbind_xx01zvns2b_c2_elabs_scored,openbind_xx01zvns2b_c2_elabs_scored_top80percent,BulkDock Fragalysis export

>  <subsites>  (47) 
1 - Z4590/B/203/1

>  <smiles>  (47) 
COC(=O)c1ccc(NC(=O)c2cc(Cl)cc(NC(=O)OCc3ccccc3)c2)c2c1CNC2=O

>  <HIPPO Pose ID>  (47) 
103375

>  <energy_score>  (47) 
-45.255502

>  <inchikey>  (47) 
JRWZUUDFBHILJB-UHFFFAOYSA-N

>  <gnina_score_min>  (47) 
6.24

>  <gnina_score>  (47) 
6.119

>  <ref_mols>  (47) 
Z2992a

>  <HIPPO Compound ID>  (47) 
163035

>  <distance_score>  (47) 
0.679392

>  <rmsd(smina/fragmenstein)>  (47) 
2.018

>  <ref_pdb>  (47) 
Z2992a

>  <inspiration_score>  (47) 
None

$$$$
P103384
     RDKit          3D

 36 39  0  0  0  0  0  0  0  0999 V2000
   -7.6071    8.7370  -12.2081 C   0  0  0  0  0  0  0  0  0  0  0  0
   -8.5106    7.5362  -12.2774 C   0  0  0  0  0  0  0  0  0  0  0  0
   -9.5266    7.4938  -12.9680 O   0  0  0  0  0  0  0  0  0  0  0  0
   -8.2189    6.3977  -11.3819 C   0  0  0  0  0  0  0  0  0  0  0  0
   -8.3509    6.6570   -9.9962 C   0  0  0  0  0  0  0  0  0  0  0  0
   -8.3840    5.6090   -9.0752 C   0  0  0  0  0  0  0  0  0  0  0  0
   -8.4615    6.0060   -7.2330 Br  0  0  0  0  0  0  0  0  0  0  0  0
   -8.3249    4.3264   -9.5692 C   0  0  0  0  0  0  0  0  0  0  0  0
   -8.1176    4.0848  -10.9235 C   0  0  0  0  0  0  0  0  0  0  0  0
   -8.0496    5.0925  -11.8706 C   0  0  0  0  0  0  0  0  0  0  0  0
   -7.8142    4.7822  -13.2136 N   0  0  0  0  0  0  0  0  0  0  0  0
   -7.2293    5.6433  -14.3546 C   0  0  0  0  0  0  0  0  0  0  0  0
   -6.7807    6.7213  -14.3356 O   0  0  0  0  0  0  0  0  0  0  0  0
   -7.3659    4.9990  -15.6871 C   0  0  0  0  0  0  0  0  0  0  0  0
   -8.6235    4.5884  -16.1356 C   0  0  0  0  0  0  0  0  0  0  0  0
   -8.7988    4.3136  -17.4907 C   0  0  0  0  0  0  0  0  0  0  0  0
  -10.3692    3.9942  -18.1061 Cl  0  0  0  0  0  0  0  0  0  0  0  0
   -7.7363    4.4126  -18.3862 C   0  0  0  0  0  0  0  0  0  0  0  0
   -6.4752    4.7863  -17.9270 C   0  0  0  0  0  0  0  0  0  0  0  0
   -5.4491    4.9228  -18.8549 N   0  0  0  0  0  0  0  0  0  0  0  0
   -3.9507    5.1434  -18.6535 C   0  0  0  0  0  0  0  0  0  0  0  0
   -3.3392    5.3237  -17.6817 O   0  0  0  0  0  0  0  0  0  0  0  0
   -3.4260    5.1173  -19.9075 O   0  0  0  0  0  0  0  0  0  0  0  0
   -2.0370    5.4573  -20.0145 C   0  0  0  0  0  0  0  0  0  0  0  0
   -1.9247    6.9385  -20.2856 C   0  0  0  0  0  0  0  0  0  0  0  0
   -1.8522    7.8544  -19.2259 C   0  0  0  0  0  0  0  0  0  0  0  0
   -1.7951    9.2263  -19.4762 C   0  0  0  0  0  0  0  0  0  0  0  0
   -1.8110    9.6968  -20.7877 C   0  0  0  0  0  0  0  0  0  0  0  0
   -1.8901    8.7965  -21.8492 C   0  0  0  0  0  0  0  0  0  0  0  0
   -1.9524    7.4242  -21.5999 C   0  0  0  0  0  0  0  0  0  0  0  0
   -6.2878    5.0824  -16.5779 C   0  0  0  0  0  0  0  0  0  0  0  0
   -7.8887    2.6546  -11.0675 C   0  0  0  0  0  0  0  0  0  0  0  0
   -7.6225    2.1131  -12.1238 O   0  0  0  0  0  0  0  0  0  0  0  0
   -8.0137    2.1204   -9.8222 N   0  0  0  0  0  0  0  0  0  0  0  0
   -8.4224    3.0291   -8.9044 C   0  0  0  0  0  0  0  0  0  0  0  0
   -8.8745    2.8428   -7.7943 O   0  0  0  0  0  0  0  0  0  0  0  0
  1  2  1  0
  2  3  2  0
  2  4  1  0
  4  5  2  0
  5  6  1  0
  6  7  1  0
  6  8  2  0
  8  9  1  0
  9 10  2  0
 10 11  1  0
 11 12  1  0
 12 13  2  0
 12 14  1  0
 14 15  2  0
 15 16  1  0
 16 17  1  0
 16 18  2  0
 18 19  1  0
 19 20  1  0
 20 21  1  0
 21 22  2  0
 21 23  1  0
 23 24  1  0
 24 25  1  0
 25 26  2  0
 26 27  1  0
 27 28  2  0
 28 29  1  0
 29 30  2  0
 19 31  2  0
  9 32  1  0
 32 33  2  0
 32 34  1  0
 34 35  1  0
 35 36  2  0
 10  4  1  0
 31 14  1  0
 35  8  1  0
 30 25  1  0
M  END
>  <name>  (48) 
P103384

>  <alias>  (48) 
None

>  <smina_score_min>  (48) 
-8.426

>  <exports>  (48) 
['/opt/xchem-fragalysis-2/maxwin/BulkDock/OUTPUTS/openbind_xx01zvns2b_c2_elabs_1LOUTNY.sdf', '/opt/xchem-fragalysis-2/maxwin/BulkDock/OUTPUTS/openbind_xx01zvns2b_c2_elabs_1LSYIIV.sdf']

>  <tags>  (48) 
syndirella_placed,openbind_xx01zvns2b_c2_elabs,openbind_xx01zvns2b_c2_elabs_scored_6.2plus,syndirella_product,openbind_xx01zvns2b_c2_elabs_scored,openbind_xx01zvns2b_c2_elabs_scored_top80percent,BulkDock Fragalysis export

>  <subsites>  (48) 
1 - Z4590/B/203/1

>  <smiles>  (48) 
CC(=O)c1cc(Br)c2c(c1NC(=O)c1cc(Cl)cc(NC(=O)OCc3ccccc3)c1)C(=O)NC2=O

>  <HIPPO Pose ID>  (48) 
103384

>  <energy_score>  (48) 
-44.832279

>  <inchikey>  (48) 
RIIQYVCTFVEOKI-UHFFFAOYSA-N

>  <gnina_score_min>  (48) 
6.542

>  <gnina_score>  (48) 
6.381

>  <ref_mols>  (48) 
Z2992a

>  <HIPPO Compound ID>  (48) 
163048

>  <distance_score>  (48) 
0.61055

>  <rmsd(smina/fragmenstein)>  (48) 
1.297

>  <ref_pdb>  (48) 
Z2992a

>  <inspiration_score>  (48) 
None

$$$$
P103390
     RDKit          3D

 36 39  0  0  0  0  0  0  0  0999 V2000
   -8.9949    3.9842   -5.7839 C   0  0  0  0  0  0  0  0  0  0  0  0
   -8.9003    3.9803   -7.2078 O   0  0  0  0  0  0  0  0  0  0  0  0
   -8.4156    5.1255   -7.7432 C   0  0  0  0  0  0  0  0  0  0  0  0
   -8.1427    6.1499   -7.1426 O   0  0  0  0  0  0  0  0  0  0  0  0
   -8.3003    4.9712   -9.2096 C   0  0  0  0  0  0  0  0  0  0  0  0
   -8.4642    6.0917  -10.0387 C   0  0  0  0  0  0  0  0  0  0  0  0
   -8.2771    5.9937  -11.4329 C   0  0  0  0  0  0  0  0  0  0  0  0
   -7.9401    4.7721  -12.0182 C   0  0  0  0  0  0  0  0  0  0  0  0
   -7.6955    4.6383  -13.3743 N   0  0  0  0  0  0  0  0  0  0  0  0
   -7.4330    5.6999  -14.4489 C   0  0  0  0  0  0  0  0  0  0  0  0
   -7.3037    6.8528  -14.3553 O   0  0  0  0  0  0  0  0  0  0  0  0
   -7.4557    5.0904  -15.7946 C   0  0  0  0  0  0  0  0  0  0  0  0
   -8.6837    4.6276  -16.2661 C   0  0  0  0  0  0  0  0  0  0  0  0
   -8.8107    4.3190  -17.6121 C   0  0  0  0  0  0  0  0  0  0  0  0
  -10.3612    3.9591  -18.2412 Cl  0  0  0  0  0  0  0  0  0  0  0  0
   -7.7181    4.4098  -18.4690 C   0  0  0  0  0  0  0  0  0  0  0  0
   -6.4766    4.8159  -17.9744 C   0  0  0  0  0  0  0  0  0  0  0  0
   -5.4118    4.8772  -18.8650 N   0  0  0  0  0  0  0  0  0  0  0  0
   -3.9394    5.2082  -18.6307 C   0  0  0  0  0  0  0  0  0  0  0  0
   -3.3598    5.4089  -17.6437 O   0  0  0  0  0  0  0  0  0  0  0  0
   -3.3840    5.1980  -19.8714 O   0  0  0  0  0  0  0  0  0  0  0  0
   -1.9975    5.5542  -19.9443 C   0  0  0  0  0  0  0  0  0  0  0  0
   -1.8991    7.0309  -20.2376 C   0  0  0  0  0  0  0  0  0  0  0  0
   -1.9028    7.4947  -21.5601 C   0  0  0  0  0  0  0  0  0  0  0  0
   -1.8524    8.8634  -21.8297 C   0  0  0  0  0  0  0  0  0  0  0  0
   -1.8088    9.7809  -20.7810 C   0  0  0  0  0  0  0  0  0  0  0  0
   -1.8170    9.3313  -19.4619 C   0  0  0  0  0  0  0  0  0  0  0  0
   -1.8631    7.9633  -19.1910 C   0  0  0  0  0  0  0  0  0  0  0  0
   -6.3434    5.1754  -16.6336 C   0  0  0  0  0  0  0  0  0  0  0  0
   -7.7775    3.6864  -11.1831 C   0  0  0  0  0  0  0  0  0  0  0  0
   -7.9155    3.7773   -9.7978 C   0  0  0  0  0  0  0  0  0  0  0  0
   -7.3684    2.5449   -9.1601 C   0  0  0  0  0  0  0  0  0  0  0  0
   -6.7168    1.9008  -10.2837 N   0  0  0  0  0  0  0  0  0  0  0  0
   -5.8083    0.7979  -10.1394 C   0  0  0  0  0  0  0  0  0  0  0  0
   -7.0923    2.4266  -11.4987 C   0  0  0  0  0  0  0  0  0  0  0  0
   -6.8489    2.0162  -12.6195 O   0  0  0  0  0  0  0  0  0  0  0  0
  1  2  1  0
  2  3  1  0
  3  4  2  0
  3  5  1  0
  5  6  2  0
  6  7  1  0
  7  8  2  0
  8  9  1  0
  9 10  1  0
 10 11  2  0
 10 12  1  0
 12 13  2  0
 13 14  1  0
 14 15  1  0
 14 16  2  0
 16 17  1  0
 17 18  1  0
 18 19  1  0
 19 20  2  0
 19 21  1  0
 21 22  1  0
 22 23  1  0
 23 24  2  0
 24 25  1  0
 25 26  2  0
 26 27  1  0
 27 28  2  0
 17 29  2  0
  8 30  1  0
 30 31  2  0
 31 32  1  0
 32 33  1  0
 33 34  1  0
 33 35  1  0
 35 36  2  0
 31  5  1  0
 29 12  1  0
 35 30  1  0
 28 23  1  0
M  END
>  <name>  (49) 
P103390

>  <alias>  (49) 
None

>  <smina_score_min>  (49) 
-7.933

>  <exports>  (49) 
['/opt/xchem-fragalysis-2/maxwin/BulkDock/OUTPUTS/openbind_xx01zvns2b_c2_elabs_1LOUTNY.sdf', '/opt/xchem-fragalysis-2/maxwin/BulkDock/OUTPUTS/openbind_xx01zvns2b_c2_elabs_1LSYIIV.sdf']

>  <tags>  (49) 
syndirella_placed,openbind_xx01zvns2b_c2_elabs,openbind_xx01zvns2b_c2_elabs_scored_6.2plus,syndirella_product,openbind_xx01zvns2b_c2_elabs_scored,openbind_xx01zvns2b_c2_elabs_scored_top80percent,BulkDock Fragalysis export

>  <subsites>  (49) 
1 - Z4590/B/203/1

>  <smiles>  (49) 
COC(=O)c1ccc(NC(=O)c2cc(Cl)cc(NC(=O)OCc3ccccc3)c2)c2c1CN(C)C2=O

>  <HIPPO Pose ID>  (49) 
103390

>  <energy_score>  (49) 
-31.461645

>  <inchikey>  (49) 
WGBWXJQDIWCOMU-UHFFFAOYSA-N

>  <gnina_score_min>  (49) 
6.362

>  <gnina_score>  (49) 
6.253

>  <ref_mols>  (49) 
Z2992a

>  <HIPPO Compound ID>  (49) 
163061

>  <distance_score>  (49) 
0.790785

>  <rmsd(smina/fragmenstein)>  (49) 
1.423

>  <ref_pdb>  (49) 
Z2992a

>  <inspiration_score>  (49) 
None

$$$$
P103395
     RDKit          3D

 36 39  0  0  0  0  0  0  0  0999 V2000
   -5.5538    5.1722   -6.3345 C   0  0  0  0  0  0  0  0  0  0  0  0
   -5.9926    4.9154   -7.7644 C   0  0  0  0  0  0  0  0  0  0  0  0
   -7.2954    5.4876   -7.9521 O   0  0  0  0  0  0  0  0  0  0  0  0
   -7.7036    5.2632   -9.2372 C   0  0  0  0  0  0  0  0  0  0  0  0
   -7.3517    6.2719  -10.1345 C   0  0  0  0  0  0  0  0  0  0  0  0
   -7.5178    6.0824  -11.4955 C   0  0  0  0  0  0  0  0  0  0  0  0
   -8.0503    4.8903  -11.9737 C   0  0  0  0  0  0  0  0  0  0  0  0
   -8.0452    4.6662  -13.3492 N   0  0  0  0  0  0  0  0  0  0  0  0
   -7.3475    5.4456  -14.4933 C   0  0  0  0  0  0  0  0  0  0  0  0
   -6.7328    6.4403  -14.4679 O   0  0  0  0  0  0  0  0  0  0  0  0
   -7.5524    4.8480  -15.8343 C   0  0  0  0  0  0  0  0  0  0  0  0
   -8.8290    4.5065  -16.2656 C   0  0  0  0  0  0  0  0  0  0  0  0
   -9.0398    4.2796  -17.6224 C   0  0  0  0  0  0  0  0  0  0  0  0
  -10.6397    4.0646  -18.1940 Cl  0  0  0  0  0  0  0  0  0  0  0  0
   -7.9927    4.3491  -18.5391 C   0  0  0  0  0  0  0  0  0  0  0  0
   -6.7076    4.6524  -18.0978 C   0  0  0  0  0  0  0  0  0  0  0  0
   -5.6827    4.7447  -19.0337 N   0  0  0  0  0  0  0  0  0  0  0  0
   -4.1950    5.0518  -18.8521 C   0  0  0  0  0  0  0  0  0  0  0  0
   -3.5686    5.2021  -17.8840 O   0  0  0  0  0  0  0  0  0  0  0  0
   -3.6915    5.1283  -20.1140 O   0  0  0  0  0  0  0  0  0  0  0  0
   -2.2899    5.4239  -20.2103 C   0  0  0  0  0  0  0  0  0  0  0  0
   -2.1083    6.9116  -20.3927 C   0  0  0  0  0  0  0  0  0  0  0  0
   -2.0904    7.4723  -21.6767 C   0  0  0  0  0  0  0  0  0  0  0  0
   -1.9504    8.8511  -21.8460 C   0  0  0  0  0  0  0  0  0  0  0  0
   -1.8373    9.6840  -20.7339 C   0  0  0  0  0  0  0  0  0  0  0  0
   -1.8654    9.1393  -19.4516 C   0  0  0  0  0  0  0  0  0  0  0  0
   -2.0007    7.7605  -19.2814 C   0  0  0  0  0  0  0  0  0  0  0  0
   -6.4861    4.8984  -16.7448 C   0  0  0  0  0  0  0  0  0  0  0  0
   -8.5259    3.9370  -11.0672 C   0  0  0  0  0  0  0  0  0  0  0  0
   -8.3782    4.1117   -9.6611 C   0  0  0  0  0  0  0  0  0  0  0  0
   -8.9653    3.0133   -8.7833 C   0  0  0  0  0  0  0  0  0  0  0  0
   -8.7420    2.9876   -7.3322 N   0  0  0  0  0  0  0  0  0  0  0  0
   -9.2781    1.7387   -6.7596 C   0  0  0  0  0  0  0  0  0  0  0  0
  -10.3955    2.1325   -5.8135 C   0  0  0  0  0  0  0  0  0  0  0  0
   -9.9519    3.4787   -5.3137 C   0  0  0  0  0  0  0  0  0  0  0  0
   -9.2942    4.0901   -6.5385 C   0  0  0  0  0  0  0  0  0  0  0  0
  1  2  1  0
  2  3  1  0
  3  4  1  0
  4  5  2  0
  5  6  1  0
  6  7  2  0
  7  8  1  0
  8  9  1  0
  9 10  2  0
  9 11  1  0
 11 12  2  0
 12 13  1  0
 13 14  1  0
 13 15  2  0
 15 16  1  0
 16 17  1  0
 17 18  1  0
 18 19  2  0
 18 20  1  0
 20 21  1  0
 21 22  1  0
 22 23  2  0
 23 24  1  0
 24 25  2  0
 25 26  1  0
 26 27  2  0
 16 28  2  0
  7 29  1  0
 29 30  2  0
 30 31  1  0
 31 32  1  0
 32 33  1  0
 33 34  1  0
 34 35  1  0
 35 36  1  0
 30  4  1  0
 36 32  1  0
 28 11  1  0
 27 22  1  0
M  END
>  <name>  (50) 
P103395

>  <alias>  (50) 
None

>  <smina_score_min>  (50) 
-7.304

>  <exports>  (50) 
['/opt/xchem-fragalysis-2/maxwin/BulkDock/OUTPUTS/openbind_xx01zvns2b_c2_elabs_1LOUTNY.sdf', '/opt/xchem-fragalysis-2/maxwin/BulkDock/OUTPUTS/openbind_xx01zvns2b_c2_elabs_1LSYIIV.sdf']

>  <tags>  (50) 
syndirella_placed,openbind_xx01zvns2b_c2_elabs,openbind_xx01zvns2b_c2_elabs_scored_6.2plus,syndirella_product,openbind_xx01zvns2b_c2_elabs_scored,openbind_xx01zvns2b_c2_elabs_scored_top80percent,BulkDock Fragalysis export

>  <subsites>  (50) 
1 - Z4590/B/203/1

>  <smiles>  (50) 
CCOc1ccc(NC(=O)c2cc(Cl)cc(NC(=O)OCc3ccccc3)c2)cc1CN1CCCC1

>  <HIPPO Pose ID>  (50) 
103395

>  <energy_score>  (50) 
-15.620405

>  <inchikey>  (50) 
JLNUWLBVKNZLBD-UHFFFAOYSA-N

>  <gnina_score_min>  (50) 
6.223

>  <gnina_score>  (50) 
6.135

>  <ref_mols>  (50) 
Z2992a

>  <HIPPO Compound ID>  (50) 
163065

>  <distance_score>  (50) 
0.534112

>  <rmsd(smina/fragmenstein)>  (50) 
1.088

>  <ref_pdb>  (50) 
Z2992a

>  <inspiration_score>  (50) 
None

$$$$
P103397
     RDKit          3D

 36 39  0  0  0  0  0  0  0  0999 V2000
   -3.5152    5.2315  -17.9800 O   0  0  0  0  0  0  0  0  0  0  0  0
   -4.1464    5.0992  -18.9472 C   0  0  0  0  0  0  0  0  0  0  0  0
   -5.6480    4.8733  -19.1285 N   0  0  0  0  0  0  0  0  0  0  0  0
   -6.6513    4.6736  -18.1881 C   0  0  0  0  0  0  0  0  0  0  0  0
   -7.9540    4.4459  -18.6350 C   0  0  0  0  0  0  0  0  0  0  0  0
   -8.9907    4.2871  -17.7193 C   0  0  0  0  0  0  0  0  0  0  0  0
  -10.6036    4.1326  -18.2679 Cl  0  0  0  0  0  0  0  0  0  0  0  0
   -8.7428    4.3280  -16.3579 C   0  0  0  0  0  0  0  0  0  0  0  0
   -7.4385    4.5494  -15.9236 C   0  0  0  0  0  0  0  0  0  0  0  0
   -7.1803    4.6311  -14.4781 C   0  0  0  0  0  0  0  0  0  0  0  0
   -6.5226    3.8203  -13.9592 O   0  0  0  0  0  0  0  0  0  0  0  0
   -7.9445    5.8357  -13.8799 N   0  0  0  0  0  0  0  0  0  0  0  0
   -8.1270    6.2206  -12.5609 C   0  0  0  0  0  0  0  0  0  0  0  0
   -8.8056    7.3974  -12.2585 C   0  0  0  0  0  0  0  0  0  0  0  0
   -9.0070    7.7775  -10.9253 C   0  0  0  0  0  0  0  0  0  0  0  0
   -8.5815    6.9569   -9.8897 C   0  0  0  0  0  0  0  0  0  0  0  0
   -7.9326    5.7731  -10.2082 C   0  0  0  0  0  0  0  0  0  0  0  0
   -7.4905    4.8816   -9.1273 C   0  0  0  0  0  0  0  0  0  0  0  0
   -7.0016    5.3287   -8.1715 O   0  0  0  0  0  0  0  0  0  0  0  0
   -7.6937    3.4244   -9.5498 N   0  0  0  0  0  0  0  0  0  0  0  0
   -7.2609    2.2203   -8.9410 C   0  0  0  0  0  0  0  0  0  0  0  0
   -5.8597    1.9843   -9.4271 C   0  0  0  0  0  0  0  0  0  0  0  0
   -4.7283    2.7513   -9.1979 C   0  0  0  0  0  0  0  0  0  0  0  0
   -3.5612    2.2125   -9.8099 C   0  0  0  0  0  0  0  0  0  0  0  0
   -3.8362    1.0522  -10.4950 C   0  0  0  0  0  0  0  0  0  0  0  0
   -5.4896    0.6378  -10.4110 S   0  0  0  0  0  0  0  0  0  0  0  0
   -7.6634    5.4205  -11.5340 C   0  0  0  0  0  0  0  0  0  0  0  0
   -6.3861    4.7149  -16.8223 C   0  0  0  0  0  0  0  0  0  0  0  0
   -3.6433    5.1695  -20.2094 O   0  0  0  0  0  0  0  0  0  0  0  0
   -2.2397    5.4558  -20.3027 C   0  0  0  0  0  0  0  0  0  0  0  0
   -2.0551    6.9475  -20.4481 C   0  0  0  0  0  0  0  0  0  0  0  0
   -1.9153    7.7655  -19.3173 C   0  0  0  0  0  0  0  0  0  0  0  0
   -1.7861    9.1487  -19.4532 C   0  0  0  0  0  0  0  0  0  0  0  0
   -1.7955    9.7284  -20.7203 C   0  0  0  0  0  0  0  0  0  0  0  0
   -1.9397    8.9262  -21.8512 C   0  0  0  0  0  0  0  0  0  0  0  0
   -2.0744    7.5432  -21.7160 C   0  0  0  0  0  0  0  0  0  0  0  0
  1  2  2  0
  2  3  1  0
  3  4  1  0
  4  5  2  0
  5  6  1  0
  6  7  1  0
  6  8  2  0
  8  9  1  0
  9 10  1  0
 10 11  2  0
 10 12  1  0
 12 13  1  0
 13 14  2  0
 14 15  1  0
 15 16  2  0
 16 17  1  0
 17 18  1  0
 18 19  2  0
 18 20  1  0
 20 21  1  0
 21 22  1  0
 22 23  2  0
 23 24  1  0
 24 25  2  0
 25 26  1  0
 17 27  2  0
  9 28  2  0
  2 29  1  0
 29 30  1  0
 30 31  1  0
 31 32  2  0
 32 33  1  0
 33 34  2  0
 34 35  1  0
 35 36  2  0
 28  4  1  0
 36 31  1  0
 27 13  1  0
 26 22  1  0
M  END
>  <name>  (51) 
P103397

>  <alias>  (51) 
None

>  <smina_score_min>  (51) 
-6.94

>  <exports>  (51) 
['/opt/xchem-fragalysis-2/maxwin/BulkDock/OUTPUTS/openbind_xx01zvns2b_c2_elabs_1LOUTNY.sdf', '/opt/xchem-fragalysis-2/maxwin/BulkDock/OUTPUTS/openbind_xx01zvns2b_c2_elabs_1LSYIIV.sdf']

>  <tags>  (51) 
syndirella_placed,openbind_xx01zvns2b_c2_elabs,openbind_xx01zvns2b_c2_elabs_scored_6.2plus,syndirella_product,openbind_xx01zvns2b_c2_elabs_scored,openbind_xx01zvns2b_c2_elabs_scored_top80percent,BulkDock Fragalysis export

>  <subsites>  (51) 
1 - Z4590/B/203/1

>  <smiles>  (51) 
O=C(Nc1cc(Cl)cc(C(=O)Nc2cccc(C(=O)NCc3cccs3)c2)c1)OCc1ccccc1

>  <HIPPO Pose ID>  (51) 
103397

>  <energy_score>  (51) 
-35.653913

>  <inchikey>  (51) 
SACUDFCGSJGYSF-UHFFFAOYSA-N

>  <gnina_score_min>  (51) 
6.266

>  <gnina_score>  (51) 
6.384

>  <ref_mols>  (51) 
Z2992a

>  <HIPPO Compound ID>  (51) 
163070

>  <distance_score>  (51) 
1.240777

>  <rmsd(smina/fragmenstein)>  (51) 
1.2

>  <ref_pdb>  (51) 
Z2992a

>  <inspiration_score>  (51) 
None

$$$$
P103400
     RDKit          3D

 36 38  0  0  0  0  0  0  0  0999 V2000
   -7.8707    8.2493  -12.4629 C   0  0  0  0  0  0  0  0  0  0  0  0
   -8.0067    6.9705  -11.6896 C   0  0  0  0  0  0  0  0  0  0  0  0
   -8.0598    7.0810  -10.2809 C   0  0  0  0  0  0  0  0  0  0  0  0
   -8.1560    5.9529   -9.4725 C   0  0  0  0  0  0  0  0  0  0  0  0
   -8.2475    4.7135  -10.0862 C   0  0  0  0  0  0  0  0  0  0  0  0
   -8.0275    3.4797   -9.3105 C   0  0  0  0  0  0  0  0  0  0  0  0
   -8.7642    3.2172   -8.4103 O   0  0  0  0  0  0  0  0  0  0  0  0
   -6.9050    2.7694   -9.8382 N   0  0  0  0  0  0  0  0  0  0  0  0
   -6.3691    1.4721   -9.5121 C   0  0  0  0  0  0  0  0  0  0  0  0
   -5.8065    0.6849  -10.6934 C   0  0  0  0  0  0  0  0  0  0  0  0
   -6.5582    0.7719  -11.8162 F   0  0  0  0  0  0  0  0  0  0  0  0
   -5.6536   -0.6229  -10.3690 F   0  0  0  0  0  0  0  0  0  0  0  0
   -4.5776    1.1699  -11.0123 F   0  0  0  0  0  0  0  0  0  0  0  0
   -8.3116    4.5874  -11.4734 C   0  0  0  0  0  0  0  0  0  0  0  0
   -8.0921    5.6972  -12.2792 C   0  0  0  0  0  0  0  0  0  0  0  0
   -7.9082    5.3738  -13.6232 N   0  0  0  0  0  0  0  0  0  0  0  0
   -7.1250    6.0024  -14.6420 C   0  0  0  0  0  0  0  0  0  0  0  0
   -6.4863    7.0145  -14.6259 O   0  0  0  0  0  0  0  0  0  0  0  0
   -7.2215    5.3003  -15.9577 C   0  0  0  0  0  0  0  0  0  0  0  0
   -8.4500    4.8016  -16.4009 C   0  0  0  0  0  0  0  0  0  0  0  0
   -8.5750    4.3760  -17.7173 C   0  0  0  0  0  0  0  0  0  0  0  0
  -10.1178    3.9046  -18.2907 Cl  0  0  0  0  0  0  0  0  0  0  0  0
   -7.4922    4.4202  -18.5886 C   0  0  0  0  0  0  0  0  0  0  0  0
   -6.2532    4.8740  -18.1364 C   0  0  0  0  0  0  0  0  0  0  0  0
   -5.2010    4.9039  -19.0468 N   0  0  0  0  0  0  0  0  0  0  0  0
   -3.8330    5.2180  -18.8757 C   0  0  0  0  0  0  0  0  0  0  0  0
   -3.2050    5.4641  -17.8911 O   0  0  0  0  0  0  0  0  0  0  0  0
   -3.2924    5.1668  -20.1232 O   0  0  0  0  0  0  0  0  0  0  0  0
   -1.9003    5.4969  -20.2250 C   0  0  0  0  0  0  0  0  0  0  0  0
   -1.7637    6.9767  -20.4883 C   0  0  0  0  0  0  0  0  0  0  0  0
   -1.8964    7.4816  -21.7891 C   0  0  0  0  0  0  0  0  0  0  0  0
   -1.8051    8.8538  -22.0284 C   0  0  0  0  0  0  0  0  0  0  0  0
   -1.5907    9.7347  -20.9694 C   0  0  0  0  0  0  0  0  0  0  0  0
   -1.4694    9.2448  -19.6704 C   0  0  0  0  0  0  0  0  0  0  0  0
   -1.5571    7.8728  -19.4304 C   0  0  0  0  0  0  0  0  0  0  0  0
   -6.1166    5.3158  -16.8198 C   0  0  0  0  0  0  0  0  0  0  0  0
  1  2  1  0
  2  3  2  0
  3  4  1  0
  4  5  2  0
  5  6  1  0
  6  7  2  0
  6  8  1  0
  8  9  1  0
  9 10  1  0
 10 11  1  0
 10 12  1  0
 10 13  1  0
  5 14  1  0
 14 15  2  0
 15 16  1  0
 16 17  1  0
 17 18  2  0
 17 19  1  0
 19 20  2  0
 20 21  1  0
 21 22  1  0
 21 23  2  0
 23 24  1  0
 24 25  1  0
 25 26  1  0
 26 27  2  0
 26 28  1  0
 28 29  1  0
 29 30  1  0
 30 31  2  0
 31 32  1  0
 32 33  2  0
 33 34  1  0
 34 35  2  0
 24 36  2  0
 15  2  1  0
 36 19  1  0
 35 30  1  0
M  END
>  <name>  (52) 
P103400

>  <alias>  (52) 
None

>  <smina_score_min>  (52) 
-7.157

>  <exports>  (52) 
['/opt/xchem-fragalysis-2/maxwin/BulkDock/OUTPUTS/openbind_xx01zvns2b_c2_elabs_1LOUTNY.sdf', '/opt/xchem-fragalysis-2/maxwin/BulkDock/OUTPUTS/openbind_xx01zvns2b_c2_elabs_1LSYIIV.sdf']

>  <tags>  (52) 
syndirella_placed,openbind_xx01zvns2b_c2_elabs,openbind_xx01zvns2b_c2_elabs_scored_6.2plus,syndirella_product,openbind_xx01zvns2b_c2_elabs_scored,openbind_xx01zvns2b_c2_elabs_scored_top80percent,BulkDock Fragalysis export

>  <subsites>  (52) 
1 - Z4590/B/203/1

>  <smiles>  (52) 
Cc1ccc(C(=O)NCC(F)(F)F)cc1NC(=O)c1cc(Cl)cc(NC(=O)OCc2ccccc2)c1

>  <HIPPO Pose ID>  (52) 
103400

>  <energy_score>  (52) 
-24.188221

>  <inchikey>  (52) 
VJIINWVEDFZUNV-UHFFFAOYSA-N

>  <gnina_score_min>  (52) 
6.306

>  <gnina_score>  (52) 
6.134

>  <ref_mols>  (52) 
Z2992a

>  <HIPPO Compound ID>  (52) 
163076

>  <distance_score>  (52) 
0.948893

>  <rmsd(smina/fragmenstein)>  (52) 
1.456

>  <ref_pdb>  (52) 
Z2992a

>  <inspiration_score>  (52) 
None

$$$$
P103403
     RDKit          3D

 36 39  0  0  0  0  0  0  0  0999 V2000
   -6.8461    2.1867  -12.0239 C   0  0  0  0  0  0  0  0  0  0  0  0
   -6.8585    3.6945  -12.2061 C   0  0  1  0  0  0  0  0  0  0  0  0
   -7.2417    3.9760  -13.5699 N   0  0  0  0  0  0  0  0  0  0  0  0
   -6.8348    5.1211  -14.5017 C   0  0  0  0  0  0  0  0  0  0  0  0
   -6.1861    6.0652  -14.2982 O   0  0  0  0  0  0  0  0  0  0  0  0
   -7.2962    4.8738  -15.8917 C   0  0  0  0  0  0  0  0  0  0  0  0
   -8.6068    4.5392  -16.2249 C   0  0  0  0  0  0  0  0  0  0  0  0
   -8.9217    4.3562  -17.5727 C   0  0  0  0  0  0  0  0  0  0  0  0
  -10.5432    4.0703  -18.0555 Cl  0  0  0  0  0  0  0  0  0  0  0  0
   -7.9505    4.4751  -18.5680 C   0  0  0  0  0  0  0  0  0  0  0  0
   -6.6413    4.7861  -18.2232 C   0  0  0  0  0  0  0  0  0  0  0  0
   -5.6793    4.9019  -19.2179 N   0  0  0  0  0  0  0  0  0  0  0  0
   -4.1623    5.0737  -19.1189 C   0  0  0  0  0  0  0  0  0  0  0  0
   -3.4620    5.0694  -18.1908 O   0  0  0  0  0  0  0  0  0  0  0  0
   -3.7304    5.2271  -20.4003 O   0  0  0  0  0  0  0  0  0  0  0  0
   -2.3235    5.4763  -20.5458 C   0  0  0  0  0  0  0  0  0  0  0  0
   -2.0957    6.9688  -20.5900 C   0  0  0  0  0  0  0  0  0  0  0  0
   -1.9368    7.7068  -19.4074 C   0  0  0  0  0  0  0  0  0  0  0  0
   -1.7736    9.0924  -19.4512 C   0  0  0  0  0  0  0  0  0  0  0  0
   -1.7649    9.7545  -20.6770 C   0  0  0  0  0  0  0  0  0  0  0  0
   -1.9245    9.0323  -21.8585 C   0  0  0  0  0  0  0  0  0  0  0  0
   -2.0948    7.6474  -21.8154 C   0  0  0  0  0  0  0  0  0  0  0  0
   -6.3162    4.9877  -16.8867 C   0  0  0  0  0  0  0  0  0  0  0  0
   -7.6219    4.4393  -11.1313 C   0  0  0  0  0  0  0  0  0  0  0  0
   -7.6003    5.8360  -11.0929 C   0  0  0  0  0  0  0  0  0  0  0  0
   -8.1010    6.5113   -9.9886 C   0  0  0  0  0  0  0  0  0  0  0  0
   -8.5973    5.8000   -8.8998 C   0  0  0  0  0  0  0  0  0  0  0  0
   -8.6323    4.4074   -8.8959 C   0  0  0  0  0  0  0  0  0  0  0  0
   -9.2116    3.6906   -7.8000 N   0  0  0  0  0  0  0  0  0  0  0  0
   -9.2786    2.2113   -7.7721 C   0  0  0  0  0  0  0  0  0  0  0  0
   -9.8898    1.8631   -6.4204 C   0  0  0  0  0  0  0  0  0  0  0  0
   -9.1931    2.7665   -5.4252 C   0  0  0  0  0  0  0  0  0  0  0  0
   -9.1473    4.3407   -6.2207 S   0  0  0  0  0  0  0  0  0  0  0  0
  -10.3928    5.0321   -5.9471 O   0  0  0  0  0  0  0  0  0  0  0  0
   -7.8618    4.9527   -5.9567 O   0  0  0  0  0  0  0  0  0  0  0  0
   -8.1981    3.7485  -10.0425 C   0  0  0  0  0  0  0  0  0  0  0  0
  2  1  1  1
  2  3  1  0
  3  4  1  0
  4  5  2  0
  4  6  1  0
  6  7  2  0
  7  8  1  0
  8  9  1  0
  8 10  2  0
 10 11  1  0
 11 12  1  0
 12 13  1  0
 13 14  2  0
 13 15  1  0
 15 16  1  0
 16 17  1  0
 17 18  2  0
 18 19  1  0
 19 20  2  0
 20 21  1  0
 21 22  2  0
 11 23  2  0
  2 24  1  0
 24 25  2  0
 25 26  1  0
 26 27  2  0
 27 28  1  0
 28 29  1  0
 29 30  1  0
 30 31  1  0
 31 32  1  0
 32 33  1  0
 33 34  2  0
 33 35  2  0
 28 36  2  0
 23  6  1  0
 36 24  1  0
 22 17  1  0
 33 29  1  0
M  END
>  <name>  (53) 
P103403

>  <alias>  (53) 
None

>  <smina_score_min>  (53) 
-7.93

>  <exports>  (53) 
['/opt/xchem-fragalysis-2/maxwin/BulkDock/OUTPUTS/openbind_xx01zvns2b_c2_elabs_1LOUTNY.sdf', '/opt/xchem-fragalysis-2/maxwin/BulkDock/OUTPUTS/openbind_xx01zvns2b_c2_elabs_1LSYIIV.sdf']

>  <tags>  (53) 
syndirella_placed,openbind_xx01zvns2b_c2_elabs,openbind_xx01zvns2b_c2_elabs_scored_6.2plus,syndirella_product,openbind_xx01zvns2b_c2_elabs_scored,openbind_xx01zvns2b_c2_elabs_scored_top80percent,BulkDock Fragalysis export

>  <subsites>  (53) 
1 - Z4590/B/203/1

>  <smiles>  (53) 
C[C@@H](NC(=O)c1cc(Cl)cc(NC(=O)OCc2ccccc2)c1)c1cccc(N2CCCS2(=O)=O)c1

>  <HIPPO Pose ID>  (53) 
103403

>  <energy_score>  (53) 
-28.076807

>  <inchikey>  (53) 
JFMKGMUEYAWGHB-GOSISDBHSA-N

>  <gnina_score_min>  (53) 
6.326

>  <gnina_score>  (53) 
6.239

>  <ref_mols>  (53) 
Z2992a

>  <HIPPO Compound ID>  (53) 
163081

>  <distance_score>  (53) 
1.08512

>  <rmsd(smina/fragmenstein)>  (53) 
1.085

>  <ref_pdb>  (53) 
Z2992a

>  <inspiration_score>  (53) 
None

$$$$
P103413
     RDKit          3D

 37 39  0  0  0  0  0  0  0  0999 V2000
   -8.3653    6.0966   -7.7767 C   0  0  0  0  0  0  0  0  0  0  0  0
   -8.2387    5.5382   -9.1641 C   0  0  0  0  0  0  0  0  0  0  0  0
   -7.8593    6.4621  -10.1445 C   0  0  0  0  0  0  0  0  0  0  0  0
   -7.7261    6.0829  -11.4684 C   0  0  0  0  0  0  0  0  0  0  0  0
   -7.9913    4.7761  -11.8639 C   0  0  0  0  0  0  0  0  0  0  0  0
   -7.8621    4.4815  -13.2233 N   0  0  0  0  0  0  0  0  0  0  0  0
   -7.2594    5.3192  -14.3834 C   0  0  0  0  0  0  0  0  0  0  0  0
   -6.7088    6.3521  -14.3668 O   0  0  0  0  0  0  0  0  0  0  0  0
   -7.4711    4.7445  -15.7332 C   0  0  0  0  0  0  0  0  0  0  0  0
   -8.7526    4.4163  -16.1679 C   0  0  0  0  0  0  0  0  0  0  0  0
   -8.9727    4.2495  -17.5344 C   0  0  0  0  0  0  0  0  0  0  0  0
  -10.5706    4.0438  -18.1224 Cl  0  0  0  0  0  0  0  0  0  0  0  0
   -7.9342    4.3726  -18.4565 C   0  0  0  0  0  0  0  0  0  0  0  0
   -6.6503    4.6762  -18.0152 C   0  0  0  0  0  0  0  0  0  0  0  0
   -5.6470    4.8694  -18.9585 N   0  0  0  0  0  0  0  0  0  0  0  0
   -4.1371    5.0374  -18.7835 C   0  0  0  0  0  0  0  0  0  0  0  0
   -3.4943    5.1183  -17.8181 O   0  0  0  0  0  0  0  0  0  0  0  0
   -3.6421    5.1042  -20.0487 O   0  0  0  0  0  0  0  0  0  0  0  0
   -2.2389    5.3841  -20.1600 C   0  0  0  0  0  0  0  0  0  0  0  0
   -2.0577    6.8706  -20.3573 C   0  0  0  0  0  0  0  0  0  0  0  0
   -1.9642    7.7316  -19.2539 C   0  0  0  0  0  0  0  0  0  0  0  0
   -1.8390    9.1098  -19.4373 C   0  0  0  0  0  0  0  0  0  0  0  0
   -1.8070    9.6418  -20.7249 C   0  0  0  0  0  0  0  0  0  0  0  0
   -1.9056    8.7968  -21.8293 C   0  0  0  0  0  0  0  0  0  0  0  0
   -2.0356    7.4186  -21.6469 C   0  0  0  0  0  0  0  0  0  0  0  0
   -6.4169    4.8578  -16.6544 C   0  0  0  0  0  0  0  0  0  0  0  0
   -8.3676    3.8310  -10.8998 C   0  0  0  0  0  0  0  0  0  0  0  0
   -8.4536    4.1818   -9.5193 C   0  0  0  0  0  0  0  0  0  0  0  0
   -8.8438    3.0921   -8.5178 C   0  0  0  0  0  0  0  0  0  0  0  0
   -8.1997    3.2015   -7.2313 N   0  0  0  0  0  0  0  0  0  0  0  0
   -8.7331    3.7076   -5.8955 C   0  0  0  0  0  0  0  0  0  0  0  0
   -9.8008    4.0484   -5.5910 O   0  0  0  0  0  0  0  0  0  0  0  0
   -7.6408    3.7861   -5.0743 O   0  0  0  0  0  0  0  0  0  0  0  0
   -7.6914    4.5812   -3.8584 C   0  0  0  0  0  0  0  0  0  0  0  0
   -6.2538    4.5829   -3.3151 C   0  0  0  0  0  0  0  0  0  0  0  0
   -8.6390    3.9870   -2.8133 C   0  0  0  0  0  0  0  0  0  0  0  0
   -8.0552    6.0407   -4.1536 C   0  0  0  0  0  0  0  0  0  0  0  0
  1  2  1  0
  2  3  2  0
  3  4  1  0
  4  5  2  0
  5  6  1  0
  6  7  1  0
  7  8  2  0
  7  9  1  0
  9 10  2  0
 10 11  1  0
 11 12  1  0
 11 13  2  0
 13 14  1  0
 14 15  1  0
 15 16  1  0
 16 17  2  0
 16 18  1  0
 18 19  1  0
 19 20  1  0
 20 21  2  0
 21 22  1  0
 22 23  2  0
 23 24  1  0
 24 25  2  0
 14 26  2  0
  5 27  1  0
 27 28  2  0
 28 29  1  0
 29 30  1  0
 30 31  1  0
 31 32  2  0
 31 33  1  0
 33 34  1  0
 34 35  1  0
 34 36  1  0
 34 37  1  0
 28  2  1  0
 26  9  1  0
 25 20  1  0
M  END
>  <name>  (54) 
P103413

>  <alias>  (54) 
None

>  <smina_score_min>  (54) 
-8.027

>  <exports>  (54) 
['/opt/xchem-fragalysis-2/maxwin/BulkDock/OUTPUTS/openbind_xx01zvns2b_c2_elabs_1LOUTNY.sdf', '/opt/xchem-fragalysis-2/maxwin/BulkDock/OUTPUTS/openbind_xx01zvns2b_c2_elabs_1LSYIIV.sdf']

>  <tags>  (54) 
syndirella_placed,openbind_xx01zvns2b_c2_elabs,openbind_xx01zvns2b_c2_elabs_scored_6.2plus,syndirella_product,openbind_xx01zvns2b_c2_elabs_scored,openbind_xx01zvns2b_c2_elabs_scored_top80percent,BulkDock Fragalysis export

>  <subsites>  (54) 
1 - Z4590/B/203/1

>  <smiles>  (54) 
Cc1ccc(NC(=O)c2cc(Cl)cc(NC(=O)OCc3ccccc3)c2)cc1CNC(=O)OC(C)(C)C

>  <HIPPO Pose ID>  (54) 
103413

>  <energy_score>  (54) 
-8.118615

>  <inchikey>  (54) 
NKMSIAKXPMRLNW-UHFFFAOYSA-N

>  <gnina_score_min>  (54) 
6.266

>  <gnina_score>  (54) 
6.052

>  <ref_mols>  (54) 
Z2992a

>  <HIPPO Compound ID>  (54) 
163099

>  <distance_score>  (54) 
0.524262

>  <rmsd(smina/fragmenstein)>  (54) 
1.165

>  <ref_pdb>  (54) 
Z2992a

>  <inspiration_score>  (54) 
None

$$$$
P103419
     RDKit          3D

 37 40  0  0  0  0  0  0  0  0999 V2000
   -3.4942    4.9968  -18.2441 O   0  0  0  0  0  0  0  0  0  0  0  0
   -4.1742    4.9747  -19.1874 C   0  0  0  0  0  0  0  0  0  0  0  0
   -5.6845    4.7613  -19.3176 N   0  0  0  0  0  0  0  0  0  0  0  0
   -6.6649    4.6277  -18.3424 C   0  0  0  0  0  0  0  0  0  0  0  0
   -7.9722    4.3208  -18.7082 C   0  0  0  0  0  0  0  0  0  0  0  0
   -8.9686    4.2646  -17.7334 C   0  0  0  0  0  0  0  0  0  0  0  0
  -10.6015    4.0602  -18.2085 Cl  0  0  0  0  0  0  0  0  0  0  0  0
   -8.6830    4.5035  -16.3927 C   0  0  0  0  0  0  0  0  0  0  0  0
   -7.3772    4.8326  -16.0423 C   0  0  0  0  0  0  0  0  0  0  0  0
   -7.0862    5.4691  -14.7431 C   0  0  0  0  0  0  0  0  0  0  0  0
   -6.5170    6.4884  -14.7887 O   0  0  0  0  0  0  0  0  0  0  0  0
   -7.6845    4.7094  -13.5386 N   0  0  0  0  0  0  0  0  0  0  0  0
   -7.7877    5.0746  -12.2042 C   0  0  0  0  0  0  0  0  0  0  0  0
   -7.3213    6.3276  -11.8263 C   0  0  0  0  0  0  0  0  0  0  0  0
   -7.4347    6.7518  -10.5158 C   0  0  0  0  0  0  0  0  0  0  0  0
   -7.9991    5.9211   -9.5498 C   0  0  0  0  0  0  0  0  0  0  0  0
   -8.0415    6.6673   -7.9937 Cl  0  0  0  0  0  0  0  0  0  0  0  0
   -8.4608    4.6362   -9.8954 C   0  0  0  0  0  0  0  0  0  0  0  0
   -9.0822    3.6117   -8.9676 C   0  0  0  0  0  0  0  0  0  0  0  0
   -9.3476    2.5795   -9.4328 O   0  0  0  0  0  0  0  0  0  0  0  0
   -9.2446    4.1260   -7.5331 N   0  0  0  0  0  0  0  0  0  0  0  0
   -9.8550    3.5138   -6.3849 C   0  0  0  0  0  0  0  0  0  0  0  0
  -10.3116    4.5449   -5.3647 C   0  0  0  0  0  0  0  0  0  0  0  0
   -9.1562    5.3720   -4.7807 C   0  0  0  0  0  0  0  0  0  0  0  0
   -7.8123    4.6607   -4.7911 C   0  0  0  0  0  0  0  0  0  0  0  0
   -8.0193    3.1752   -4.6381 C   0  0  0  0  0  0  0  0  0  0  0  0
   -8.8905    2.5458   -5.7407 C   0  0  0  0  0  0  0  0  0  0  0  0
   -8.3566    4.2333  -11.2528 C   0  0  0  0  0  0  0  0  0  0  0  0
   -6.3656    4.8712  -17.0068 C   0  0  0  0  0  0  0  0  0  0  0  0
   -3.7191    5.1394  -20.4595 O   0  0  0  0  0  0  0  0  0  0  0  0
   -2.3146    5.4175  -20.5759 C   0  0  0  0  0  0  0  0  0  0  0  0
   -2.1077    6.9141  -20.6042 C   0  0  0  0  0  0  0  0  0  0  0  0
   -2.1056    7.6038  -21.8235 C   0  0  0  0  0  0  0  0  0  0  0  0
   -1.9478    8.9907  -21.8539 C   0  0  0  0  0  0  0  0  0  0  0  0
   -1.8019    9.7042  -20.6654 C   0  0  0  0  0  0  0  0  0  0  0  0
   -1.8132    9.0315  -19.4453 C   0  0  0  0  0  0  0  0  0  0  0  0
   -1.9643    7.6439  -19.4145 C   0  0  0  0  0  0  0  0  0  0  0  0
  1  2  2  0
  2  3  1  0
  3  4  1  0
  4  5  2  0
  5  6  1  0
  6  7  1  0
  6  8  2  0
  8  9  1  0
  9 10  1  0
 10 11  2  0
 10 12  1  0
 12 13  1  0
 13 14  2  0
 14 15  1  0
 15 16  2  0
 16 17  1  0
 16 18  1  0
 18 19  1  0
 19 20  2  0
 19 21  1  0
 21 22  1  0
 22 23  1  0
 23 24  1  0
 24 25  1  0
 25 26  1  0
 26 27  1  0
 18 28  2  0
  9 29  2  0
  2 30  1  0
 30 31  1  0
 31 32  1  0
 32 33  2  0
 33 34  1  0
 34 35  2  0
 35 36  1  0
 36 37  2  0
 29  4  1  0
 37 32  1  0
 28 13  1  0
 27 22  1  0
M  END
>  <name>  (55) 
P103419

>  <alias>  (55) 
None

>  <smina_score_min>  (55) 
-6.876

>  <exports>  (55) 
['/opt/xchem-fragalysis-2/maxwin/BulkDock/OUTPUTS/openbind_xx01zvns2b_c2_elabs_1LOUTNY.sdf', '/opt/xchem-fragalysis-2/maxwin/BulkDock/OUTPUTS/openbind_xx01zvns2b_c2_elabs_1LSYIIV.sdf']

>  <tags>  (55) 
syndirella_placed,openbind_xx01zvns2b_c2_elabs,openbind_xx01zvns2b_c2_elabs_scored_6.2plus,syndirella_product,openbind_xx01zvns2b_c2_elabs_scored,openbind_xx01zvns2b_c2_elabs_scored_top80percent,BulkDock Fragalysis export

>  <subsites>  (55) 
1 - Z4590/B/203/1

>  <smiles>  (55) 
O=C(Nc1cc(Cl)cc(C(=O)Nc2ccc(Cl)c(C(=O)NC3CCCCC3)c2)c1)OCc1ccccc1

>  <HIPPO Pose ID>  (55) 
103419

>  <energy_score>  (55) 
-21.883786

>  <inchikey>  (55) 
CNAFNIYTSAZCDQ-UHFFFAOYSA-N

>  <gnina_score_min>  (55) 
6.268

>  <gnina_score>  (55) 
6.253

>  <ref_mols>  (55) 
Z2992a

>  <HIPPO Compound ID>  (55) 
163107

>  <distance_score>  (55) 
0.823552

>  <rmsd(smina/fragmenstein)>  (55) 
1.168

>  <ref_pdb>  (55) 
Z2992a

>  <inspiration_score>  (55) 
None

$$$$
P103422
     RDKit          3D

 37 40  0  0  0  0  0  0  0  0999 V2000
   -9.5257    1.4118   -7.6965 C   0  0  0  0  0  0  0  0  0  0  0  0
   -9.0231    2.4888   -8.4799 N   0  0  0  0  0  0  0  0  0  0  0  0
   -9.0296    3.9911   -8.2196 C   0  0  0  0  0  0  0  0  0  0  0  0
   -9.3775    4.5939   -7.2872 O   0  0  0  0  0  0  0  0  0  0  0  0
   -8.4536    4.7946   -9.3513 C   0  0  0  0  0  0  0  0  0  0  0  0
   -7.9440    6.0277   -8.9476 C   0  0  0  0  0  0  0  0  0  0  0  0
   -7.4898    6.9400   -9.8778 C   0  0  0  0  0  0  0  0  0  0  0  0
   -7.4936    6.6526  -11.2485 C   0  0  0  0  0  0  0  0  0  0  0  0
   -7.1464    7.6891  -12.1282 N   0  0  0  0  0  0  0  0  0  0  0  0
   -8.2670    8.5828  -12.4511 C   0  0  0  0  0  0  0  0  0  0  0  0
   -7.8224    9.7588  -13.3225 C   0  0  0  0  0  0  0  0  0  0  0  0
   -6.7208   10.9198  -12.4419 S   0  0  0  0  0  0  0  0  0  0  0  0
   -5.8340    9.7151  -11.3876 C   0  0  0  0  0  0  0  0  0  0  0  0
   -5.8079    8.2913  -11.9536 C   0  0  0  0  0  0  0  0  0  0  0  0
   -7.9480    5.3758  -11.6802 C   0  0  0  0  0  0  0  0  0  0  0  0
   -7.8873    4.9570  -13.0338 N   0  0  0  0  0  0  0  0  0  0  0  0
   -7.0939    5.5428  -14.2385 C   0  0  0  0  0  0  0  0  0  0  0  0
   -6.3102    6.4127  -14.2805 O   0  0  0  0  0  0  0  0  0  0  0  0
   -7.3725    4.9094  -15.5614 C   0  0  0  0  0  0  0  0  0  0  0  0
   -8.6521    4.5919  -16.0140 C   0  0  0  0  0  0  0  0  0  0  0  0
   -8.8375    4.3191  -17.3762 C   0  0  0  0  0  0  0  0  0  0  0  0
  -10.4183    4.0727  -18.0078 Cl  0  0  0  0  0  0  0  0  0  0  0  0
   -7.7720    4.3485  -18.2780 C   0  0  0  0  0  0  0  0  0  0  0  0
   -6.4920    4.6273  -17.8170 C   0  0  0  0  0  0  0  0  0  0  0  0
   -5.4390    4.6919  -18.7215 N   0  0  0  0  0  0  0  0  0  0  0  0
   -3.9424    4.9669  -18.4952 C   0  0  0  0  0  0  0  0  0  0  0  0
   -3.3413    5.1068  -17.5073 O   0  0  0  0  0  0  0  0  0  0  0  0
   -3.3053    5.0201  -19.6981 O   0  0  0  0  0  0  0  0  0  0  0  0
   -3.7413    6.0330  -20.6113 C   0  0  0  0  0  0  0  0  0  0  0  0
   -2.8317    7.2385  -20.5801 C   0  0  0  0  0  0  0  0  0  0  0  0
   -2.6753    7.9958  -19.4087 C   0  0  0  0  0  0  0  0  0  0  0  0
   -1.9135    9.1650  -19.4146 C   0  0  0  0  0  0  0  0  0  0  0  0
   -1.3003    9.5907  -20.5901 C   0  0  0  0  0  0  0  0  0  0  0  0
   -1.4330    8.8387  -21.7555 C   0  0  0  0  0  0  0  0  0  0  0  0
   -2.1915    7.6672  -21.7506 C   0  0  0  0  0  0  0  0  0  0  0  0
   -6.2953    4.8942  -16.4664 C   0  0  0  0  0  0  0  0  0  0  0  0
   -8.4615    4.4644  -10.7233 C   0  0  0  0  0  0  0  0  0  0  0  0
  1  2  1  0
  2  3  1  0
  3  4  2  0
  3  5  1  0
  5  6  2  0
  6  7  1  0
  7  8  2  0
  8  9  1  0
  9 10  1  0
 10 11  1  0
 11 12  1  0
 12 13  1  0
 13 14  1  0
  8 15  1  0
 15 16  1  0
 16 17  1  0
 17 18  2  0
 17 19  1  0
 19 20  2  0
 20 21  1  0
 21 22  1  0
 21 23  2  0
 23 24  1  0
 24 25  1  0
 25 26  1  0
 26 27  2  0
 26 28  1  0
 28 29  1  0
 29 30  1  0
 30 31  2  0
 31 32  1  0
 32 33  2  0
 33 34  1  0
 34 35  2  0
 24 36  2  0
 15 37  2  0
 37  5  1  0
 14  9  1  0
 36 19  1  0
 35 30  1  0
M  END
>  <name>  (56) 
P103422

>  <alias>  (56) 
None

>  <smina_score_min>  (56) 
-7.734

>  <exports>  (56) 
['/opt/xchem-fragalysis-2/maxwin/BulkDock/OUTPUTS/openbind_xx01zvns2b_c2_elabs_1LOUTNY.sdf', '/opt/xchem-fragalysis-2/maxwin/BulkDock/OUTPUTS/openbind_xx01zvns2b_c2_elabs_1LSYIIV.sdf']

>  <tags>  (56) 
syndirella_placed,openbind_xx01zvns2b_c2_elabs,openbind_xx01zvns2b_c2_elabs_scored_6.2plus,syndirella_product,openbind_xx01zvns2b_c2_elabs_scored,openbind_xx01zvns2b_c2_elabs_scored_top80percent,BulkDock Fragalysis export

>  <subsites>  (56) 
1 - Z4590/B/203/1

>  <smiles>  (56) 
CNC(=O)c1ccc(N2CCSCC2)c(NC(=O)c2cc(Cl)cc(NC(=O)OCc3ccccc3)c2)c1

>  <HIPPO Pose ID>  (56) 
103422

>  <energy_score>  (56) 
-1.157086

>  <inchikey>  (56) 
FMGKTPZQVKOWMI-UHFFFAOYSA-N

>  <gnina_score_min>  (56) 
6.401

>  <gnina_score>  (56) 
6.38

>  <ref_mols>  (56) 
Z2992a

>  <HIPPO Compound ID>  (56) 
163121

>  <distance_score>  (56) 
0.818299

>  <rmsd(smina/fragmenstein)>  (56) 
1.501

>  <ref_pdb>  (56) 
Z2992a

>  <inspiration_score>  (56) 
None

$$$$
P103423
     RDKit          3D

 37 39  0  0  0  0  0  0  0  0999 V2000
   -0.6018    3.3554   -9.2280 C   0  0  0  0  0  0  0  0  0  0  0  0
   -1.2912    2.0700   -9.6978 C   0  0  0  0  0  0  0  0  0  0  0  0
   -1.3325    1.0179   -8.5880 C   0  0  0  0  0  0  0  0  0  0  0  0
   -0.5134    1.4941  -10.8910 C   0  0  0  0  0  0  0  0  0  0  0  0
   -2.6070    2.3706  -10.2283 O   0  0  0  0  0  0  0  0  0  0  0  0
   -3.6052    2.8505   -9.4386 C   0  0  0  0  0  0  0  0  0  0  0  0
   -3.5481    2.9643   -8.2834 O   0  0  0  0  0  0  0  0  0  0  0  0
   -4.7107    3.2399  -10.4198 N   0  0  0  0  0  0  0  0  0  0  0  0
   -5.9087    3.9183  -10.2110 C   0  0  0  0  0  0  0  0  0  0  0  0
   -6.4829    4.0743   -8.9514 C   0  0  0  0  0  0  0  0  0  0  0  0
   -7.6156    4.8723   -8.7854 C   0  0  0  0  0  0  0  0  0  0  0  0
   -8.1609    5.5167   -9.8850 C   0  0  0  0  0  0  0  0  0  0  0  0
   -9.1763    6.3704   -9.6995 F   0  0  0  0  0  0  0  0  0  0  0  0
   -7.6479    5.3232  -11.1674 C   0  0  0  0  0  0  0  0  0  0  0  0
   -8.2530    6.0757  -12.3039 C   0  0  0  0  0  0  0  0  0  0  0  0
   -8.0042    5.4794  -13.5836 N   0  0  0  0  0  0  0  0  0  0  0  0
   -7.0702    5.9109  -14.7177 C   0  0  0  0  0  0  0  0  0  0  0  0
   -6.2945    6.7766  -14.7679 O   0  0  0  0  0  0  0  0  0  0  0  0
   -7.2899    5.1317  -15.9762 C   0  0  0  0  0  0  0  0  0  0  0  0
   -8.5652    4.7278  -16.3790 C   0  0  0  0  0  0  0  0  0  0  0  0
   -8.7699    4.3387  -17.7008 C   0  0  0  0  0  0  0  0  0  0  0  0
  -10.3681    4.0115  -18.2302 Cl  0  0  0  0  0  0  0  0  0  0  0  0
   -7.7248    4.3363  -18.6200 C   0  0  0  0  0  0  0  0  0  0  0  0
   -6.4440    4.6912  -18.2058 C   0  0  0  0  0  0  0  0  0  0  0  0
   -5.4154    4.7269  -19.1407 N   0  0  0  0  0  0  0  0  0  0  0  0
   -3.9288    5.0440  -18.9715 C   0  0  0  0  0  0  0  0  0  0  0  0
   -3.3067    5.2520  -18.0116 O   0  0  0  0  0  0  0  0  0  0  0  0
   -3.4262    5.0765  -20.2354 O   0  0  0  0  0  0  0  0  0  0  0  0
   -2.0458    5.4551  -20.3388 C   0  0  0  0  0  0  0  0  0  0  0  0
   -1.9524    6.9553  -20.4905 C   0  0  0  0  0  0  0  0  0  0  0  0
   -2.0282    7.5440  -21.7595 C   0  0  0  0  0  0  0  0  0  0  0  0
   -1.9742    8.9318  -21.9012 C   0  0  0  0  0  0  0  0  0  0  0  0
   -1.8569    9.7459  -20.7758 C   0  0  0  0  0  0  0  0  0  0  0  0
   -1.7939    9.1732  -19.5073 C   0  0  0  0  0  0  0  0  0  0  0  0
   -1.8406    7.7854  -19.3652 C   0  0  0  0  0  0  0  0  0  0  0  0
   -6.2240    5.0675  -16.8826 C   0  0  0  0  0  0  0  0  0  0  0  0
   -6.5145    4.5111  -11.3199 C   0  0  0  0  0  0  0  0  0  0  0  0
  1  2  1  0
  2  3  1  0
  2  4  1  0
  2  5  1  0
  5  6  1  0
  6  7  2  0
  6  8  1  0
  8  9  1  0
  9 10  2  0
 10 11  1  0
 11 12  2  0
 12 13  1  0
 12 14  1  0
 14 15  1  0
 15 16  1  0
 16 17  1  0
 17 18  2  0
 17 19  1  0
 19 20  2  0
 20 21  1  0
 21 22  1  0
 21 23  2  0
 23 24  1  0
 24 25  1  0
 25 26  1  0
 26 27  2  0
 26 28  1  0
 28 29  1  0
 29 30  1  0
 30 31  2  0
 31 32  1  0
 32 33  2  0
 33 34  1  0
 34 35  2  0
 24 36  2  0
 14 37  2  0
 37  9  1  0
 36 19  1  0
 35 30  1  0
M  END
>  <name>  (57) 
P103423

>  <alias>  (57) 
None

>  <smina_score_min>  (57) 
-7.064

>  <exports>  (57) 
['/opt/xchem-fragalysis-2/maxwin/BulkDock/OUTPUTS/openbind_xx01zvns2b_c2_elabs_1LOUTNY.sdf', '/opt/xchem-fragalysis-2/maxwin/BulkDock/OUTPUTS/openbind_xx01zvns2b_c2_elabs_1LSYIIV.sdf']

>  <tags>  (57) 
syndirella_placed,openbind_xx01zvns2b_c2_elabs,openbind_xx01zvns2b_c2_elabs_scored_6.2plus,syndirella_product,openbind_xx01zvns2b_c2_elabs_scored,openbind_xx01zvns2b_c2_elabs_scored_top80percent,BulkDock Fragalysis export

>  <subsites>  (57) 
1 - Z4590/B/203/1

>  <smiles>  (57) 
CC(C)(C)OC(=O)Nc1ccc(F)c(CNC(=O)c2cc(Cl)cc(NC(=O)OCc3ccccc3)c2)c1

>  <HIPPO Pose ID>  (57) 
103423

>  <energy_score>  (57) 
-21.30284

>  <inchikey>  (57) 
UJVMMUWVQHRZTE-UHFFFAOYSA-N

>  <gnina_score_min>  (57) 
6.256

>  <gnina_score>  (57) 
6.28

>  <ref_mols>  (57) 
Z2992a

>  <HIPPO Compound ID>  (57) 
163122

>  <distance_score>  (57) 
1.549742

>  <rmsd(smina/fragmenstein)>  (57) 
1.342

>  <ref_pdb>  (57) 
Z2992a

>  <inspiration_score>  (57) 
None

$$$$
P103425
     RDKit          3D

 37 40  0  0  0  0  0  0  0  0999 V2000
   -7.8009    3.2033  -11.0609 C   0  0  0  0  0  0  0  0  0  0  0  0
   -8.0461    4.6783  -10.9338 C   0  0  0  0  0  0  0  0  0  0  0  0
   -8.2001    5.5328  -12.0459 C   0  0  0  0  0  0  0  0  0  0  0  0
   -8.1061    5.1920  -13.3992 N   0  0  0  0  0  0  0  0  0  0  0  0
   -7.2072    4.1588  -14.1137 C   0  0  0  0  0  0  0  0  0  0  0  0
   -6.4606    3.3773  -13.6775 O   0  0  0  0  0  0  0  0  0  0  0  0
   -7.4106    4.2906  -15.5856 C   0  0  0  0  0  0  0  0  0  0  0  0
   -8.7000    4.1597  -16.1125 C   0  0  0  0  0  0  0  0  0  0  0  0
   -8.8898    4.2695  -17.4836 C   0  0  0  0  0  0  0  0  0  0  0  0
  -10.4645    4.1366  -18.1509 Cl  0  0  0  0  0  0  0  0  0  0  0  0
   -7.8138    4.5218  -18.3268 C   0  0  0  0  0  0  0  0  0  0  0  0
   -6.5298    4.6723  -17.7995 C   0  0  0  0  0  0  0  0  0  0  0  0
   -5.5008    4.9296  -18.6991 N   0  0  0  0  0  0  0  0  0  0  0  0
   -3.9961    5.0609  -18.4750 C   0  0  0  0  0  0  0  0  0  0  0  0
   -3.3769    5.0520  -17.4920 O   0  0  0  0  0  0  0  0  0  0  0  0
   -3.4806    5.2021  -19.7234 O   0  0  0  0  0  0  0  0  0  0  0  0
   -2.0758    5.4717  -19.8141 C   0  0  0  0  0  0  0  0  0  0  0  0
   -1.9183    6.9415  -20.1159 C   0  0  0  0  0  0  0  0  0  0  0  0
   -1.8406    7.3932  -21.4403 C   0  0  0  0  0  0  0  0  0  0  0  0
   -1.7430    8.7578  -21.7178 C   0  0  0  0  0  0  0  0  0  0  0  0
   -1.7314    9.6835  -20.6754 C   0  0  0  0  0  0  0  0  0  0  0  0
   -1.8181    9.2460  -19.3548 C   0  0  0  0  0  0  0  0  0  0  0  0
   -1.9132    7.8818  -19.0757 C   0  0  0  0  0  0  0  0  0  0  0  0
   -6.3219    4.5569  -16.4238 C   0  0  0  0  0  0  0  0  0  0  0  0
   -8.5215    6.8898  -11.8560 C   0  0  0  0  0  0  0  0  0  0  0  0
   -8.6411    7.4420  -10.5908 C   0  0  0  0  0  0  0  0  0  0  0  0
   -8.4605    6.6315   -9.4910 C   0  0  0  0  0  0  0  0  0  0  0  0
   -8.1582    5.2696   -9.6539 C   0  0  0  0  0  0  0  0  0  0  0  0
   -8.0690    4.5712   -8.3434 C   0  0  0  0  0  0  0  0  0  0  0  0
   -8.8831    3.7991   -8.0234 O   0  0  0  0  0  0  0  0  0  0  0  0
   -6.8534    5.1316   -7.5616 N   0  0  0  0  0  0  0  0  0  0  0  0
   -6.4604    4.9357   -6.2423 C   0  0  0  0  0  0  0  0  0  0  0  0
   -5.2967    5.5658   -5.7901 C   0  0  0  0  0  0  0  0  0  0  0  0
   -4.9313    5.4894   -4.4433 C   0  0  0  0  0  0  0  0  0  0  0  0
   -5.7338    4.7897   -3.5443 C   0  0  0  0  0  0  0  0  0  0  0  0
   -6.8896    4.1558   -3.9982 C   0  0  0  0  0  0  0  0  0  0  0  0
   -7.2459    4.2177   -5.3461 C   0  0  0  0  0  0  0  0  0  0  0  0
  1  2  1  0
  2  3  2  0
  3  4  1  0
  4  5  1  0
  5  6  2  0
  5  7  1  0
  7  8  2  0
  8  9  1  0
  9 10  1  0
  9 11  2  0
 11 12  1  0
 12 13  1  0
 13 14  1  0
 14 15  2  0
 14 16  1  0
 16 17  1  0
 17 18  1  0
 18 19  2  0
 19 20  1  0
 20 21  2  0
 21 22  1  0
 22 23  2  0
 12 24  2  0
  3 25  1  0
 25 26  2  0
 26 27  1  0
 27 28  2  0
 28 29  1  0
 29 30  2  0
 29 31  1  0
 31 32  1  0
 32 33  2  0
 33 34  1  0
 34 35  2  0
 35 36  1  0
 36 37  2  0
 28  2  1  0
 37 32  1  0
 24  7  1  0
 23 18  1  0
M  END
>  <name>  (58) 
P103425

>  <alias>  (58) 
None

>  <smina_score_min>  (58) 
-8.704

>  <exports>  (58) 
['/opt/xchem-fragalysis-2/maxwin/BulkDock/OUTPUTS/openbind_xx01zvns2b_c2_elabs_1LOUTNY.sdf', '/opt/xchem-fragalysis-2/maxwin/BulkDock/OUTPUTS/openbind_xx01zvns2b_c2_elabs_1LSYIIV.sdf']

>  <tags>  (58) 
syndirella_placed,openbind_xx01zvns2b_c2_elabs,openbind_xx01zvns2b_c2_elabs_scored_6.2plus,syndirella_product,openbind_xx01zvns2b_c2_elabs_scored,openbind_xx01zvns2b_c2_elabs_scored_top80percent,BulkDock Fragalysis export

>  <subsites>  (58) 
1 - Z4590/B/203/1

>  <smiles>  (58) 
Cc1c(NC(=O)c2cc(Cl)cc(NC(=O)OCc3ccccc3)c2)cccc1C(=O)Nc1ccccc1

>  <HIPPO Pose ID>  (58) 
103425

>  <energy_score>  (58) 
-40.502175

>  <inchikey>  (58) 
QBTPKJGLVJGDLR-UHFFFAOYSA-N

>  <gnina_score_min>  (58) 
6.228

>  <gnina_score>  (58) 
6.005

>  <ref_mols>  (58) 
Z2992a

>  <HIPPO Compound ID>  (58) 
163126

>  <distance_score>  (58) 
1.159529

>  <rmsd(smina/fragmenstein)>  (58) 
1.977

>  <ref_pdb>  (58) 
Z2992a

>  <inspiration_score>  (58) 
None

$$$$
P103427
     RDKit          3D

 37 40  0  0  0  0  0  0  0  0999 V2000
   -3.4369    5.2129  -18.1124 O   0  0  0  0  0  0  0  0  0  0  0  0
   -4.1311    5.1594  -19.0435 C   0  0  0  0  0  0  0  0  0  0  0  0
   -5.6471    4.9816  -19.1417 N   0  0  0  0  0  0  0  0  0  0  0  0
   -6.5939    4.7445  -18.1539 C   0  0  0  0  0  0  0  0  0  0  0  0
   -7.9222    4.5617  -18.5181 C   0  0  0  0  0  0  0  0  0  0  0  0
   -8.8855    4.3072  -17.5447 C   0  0  0  0  0  0  0  0  0  0  0  0
  -10.5177    4.1227  -18.0444 Cl  0  0  0  0  0  0  0  0  0  0  0  0
   -8.5388    4.2129  -16.1982 C   0  0  0  0  0  0  0  0  0  0  0  0
   -7.1982    4.3704  -15.8379 C   0  0  0  0  0  0  0  0  0  0  0  0
   -6.7038    4.1058  -14.4582 C   0  0  0  0  0  0  0  0  0  0  0  0
   -5.7076    3.5076  -14.3494 O   0  0  0  0  0  0  0  0  0  0  0  0
   -7.6197    4.7288  -13.3824 N   0  0  0  0  0  0  0  0  0  0  0  0
   -7.5544    4.6671  -11.9965 C   0  0  0  0  0  0  0  0  0  0  0  0
   -8.3622    5.4833  -11.2116 C   0  0  0  0  0  0  0  0  0  0  0  0
   -8.2508    5.4425   -9.8171 C   0  0  0  0  0  0  0  0  0  0  0  0
   -7.3162    4.6012   -9.2070 C   0  0  0  0  0  0  0  0  0  0  0  0
   -6.4797    3.8122  -10.0025 C   0  0  0  0  0  0  0  0  0  0  0  0
   -5.3159    3.0421   -9.4631 C   0  0  0  0  0  0  0  0  0  0  0  0
   -5.1288    1.9456   -9.8223 O   0  0  0  0  0  0  0  0  0  0  0  0
   -4.4708    3.9540   -8.5352 N   0  0  0  0  0  0  0  0  0  0  0  0
   -3.2225    3.7459   -7.9572 C   0  0  0  0  0  0  0  0  0  0  0  0
   -2.4657    2.6081   -8.2457 C   0  0  0  0  0  0  0  0  0  0  0  0
   -1.2148    2.4210   -7.6505 C   0  0  0  0  0  0  0  0  0  0  0  0
   -0.7170    3.3763   -6.7678 C   0  0  0  0  0  0  0  0  0  0  0  0
   -1.4732    4.5103   -6.4941 C   0  0  0  0  0  0  0  0  0  0  0  0
   -0.9955    5.4301   -5.6446 F   0  0  0  0  0  0  0  0  0  0  0  0
   -2.7185    4.7079   -7.0826 C   0  0  0  0  0  0  0  0  0  0  0  0
   -6.6334    3.8189  -11.3891 C   0  0  0  0  0  0  0  0  0  0  0  0
   -6.2332    4.6518  -16.8140 C   0  0  0  0  0  0  0  0  0  0  0  0
   -3.7006    5.2898  -20.3276 O   0  0  0  0  0  0  0  0  0  0  0  0
   -2.2936    5.5310  -20.4811 C   0  0  0  0  0  0  0  0  0  0  0  0
   -2.0672    7.0216  -20.5589 C   0  0  0  0  0  0  0  0  0  0  0  0
   -1.8823    7.7812  -19.3941 C   0  0  0  0  0  0  0  0  0  0  0  0
   -1.7239    9.1659  -19.4673 C   0  0  0  0  0  0  0  0  0  0  0  0
   -1.7462    9.8049  -20.7052 C   0  0  0  0  0  0  0  0  0  0  0  0
   -1.9315    9.0607  -21.8692 C   0  0  0  0  0  0  0  0  0  0  0  0
   -2.0970    7.6767  -21.7965 C   0  0  0  0  0  0  0  0  0  0  0  0
  1  2  2  0
  2  3  1  0
  3  4  1  0
  4  5  2  0
  5  6  1  0
  6  7  1  0
  6  8  2  0
  8  9  1  0
  9 10  1  0
 10 11  2  0
 10 12  1  0
 12 13  1  0
 13 14  2  0
 14 15  1  0
 15 16  2  0
 16 17  1  0
 17 18  1  0
 18 19  2  0
 18 20  1  0
 20 21  1  0
 21 22  2  0
 22 23  1  0
 23 24  2  0
 24 25  1  0
 25 26  1  0
 25 27  2  0
 17 28  2  0
  9 29  2  0
  2 30  1  0
 30 31  1  0
 31 32  1  0
 32 33  2  0
 33 34  1  0
 34 35  2  0
 35 36  1  0
 36 37  2  0
 29  4  1  0
 37 32  1  0
 28 13  1  0
 27 21  1  0
M  END
>  <name>  (59) 
P103427

>  <alias>  (59) 
None

>  <smina_score_min>  (59) 
-8.144

>  <exports>  (59) 
['/opt/xchem-fragalysis-2/maxwin/BulkDock/OUTPUTS/openbind_xx01zvns2b_c2_elabs_1LOUTNY.sdf', '/opt/xchem-fragalysis-2/maxwin/BulkDock/OUTPUTS/openbind_xx01zvns2b_c2_elabs_1LSYIIV.sdf']

>  <tags>  (59) 
syndirella_placed,openbind_xx01zvns2b_c2_elabs,openbind_xx01zvns2b_c2_elabs_scored_6.2plus,syndirella_product,openbind_xx01zvns2b_c2_elabs_scored,openbind_xx01zvns2b_c2_elabs_scored_top80percent,BulkDock Fragalysis export

>  <subsites>  (59) 
1 - Z4590/B/203/1

>  <smiles>  (59) 
O=C(Nc1cc(Cl)cc(C(=O)Nc2cccc(C(=O)Nc3cccc(F)c3)c2)c1)OCc1ccccc1

>  <HIPPO Pose ID>  (59) 
103427

>  <energy_score>  (59) 
-27.366406

>  <inchikey>  (59) 
WOHRHXBWDRBILI-UHFFFAOYSA-N

>  <gnina_score_min>  (59) 
6.256

>  <gnina_score>  (59) 
6.216

>  <ref_mols>  (59) 
Z2992a

>  <HIPPO Compound ID>  (59) 
163131

>  <distance_score>  (59) 
1.41231

>  <rmsd(smina/fragmenstein)>  (59) 
1.826

>  <ref_pdb>  (59) 
Z2992a

>  <inspiration_score>  (59) 
None

$$$$
P103432
     RDKit          3D

 38 41  0  0  0  0  0  0  0  0999 V2000
    1.5849    1.4174   -7.2420 C   0  0  0  0  0  0  0  0  0  0  0  0
    0.8771    0.7172   -8.2590 O   0  0  0  0  0  0  0  0  0  0  0  0
   -0.3693    1.2567   -8.5121 C   0  0  0  0  0  0  0  0  0  0  0  0
   -1.1010    0.6657   -9.5295 C   0  0  0  0  0  0  0  0  0  0  0  0
   -2.3692    1.1651   -9.8248 C   0  0  0  0  0  0  0  0  0  0  0  0
   -2.8552    2.2450   -9.0988 C   0  0  0  0  0  0  0  0  0  0  0  0
   -4.1000    2.7819   -9.4046 N   0  0  0  0  0  0  0  0  0  0  0  0
   -4.8540    3.9852   -8.7899 C   0  0  0  0  0  0  0  0  0  0  0  0
   -4.5807    4.6652   -7.8795 O   0  0  0  0  0  0  0  0  0  0  0  0
   -6.0735    4.3530   -9.5886 C   0  0  0  0  0  0  0  0  0  0  0  0
   -7.1155    5.0161   -8.9246 C   0  0  0  0  0  0  0  0  0  0  0  0
   -8.1602    5.5781   -9.6493 C   0  0  0  0  0  0  0  0  0  0  0  0
   -8.1742    5.4732  -11.0379 C   0  0  0  0  0  0  0  0  0  0  0  0
   -7.1568    4.7960  -11.7109 C   0  0  0  0  0  0  0  0  0  0  0  0
   -7.1652    4.7214  -13.1008 N   0  0  0  0  0  0  0  0  0  0  0  0
   -8.1370    5.3287  -14.1292 C   0  0  0  0  0  0  0  0  0  0  0  0
   -9.0412    6.0521  -13.9809 O   0  0  0  0  0  0  0  0  0  0  0  0
   -7.8550    4.8791  -15.5157 C   0  0  0  0  0  0  0  0  0  0  0  0
   -8.9762    4.4479  -16.2173 C   0  0  0  0  0  0  0  0  0  0  0  0
   -8.9149    4.2734  -17.5838 C   0  0  0  0  0  0  0  0  0  0  0  0
  -10.3669    3.9896  -18.4281 Cl  0  0  0  0  0  0  0  0  0  0  0  0
   -7.7187    4.4442  -18.2600 C   0  0  0  0  0  0  0  0  0  0  0  0
   -6.5681    4.8105  -17.5535 C   0  0  0  0  0  0  0  0  0  0  0  0
   -5.4144    4.9727  -18.3140 N   0  0  0  0  0  0  0  0  0  0  0  0
   -3.9822    5.2784  -17.8899 C   0  0  0  0  0  0  0  0  0  0  0  0
   -3.5419    5.5211  -16.8428 O   0  0  0  0  0  0  0  0  0  0  0  0
   -3.2805    5.2161  -19.0501 O   0  0  0  0  0  0  0  0  0  0  0  0
   -1.9182    5.6546  -19.0234 C   0  0  0  0  0  0  0  0  0  0  0  0
   -1.8726    7.0276  -19.6472 C   0  0  0  0  0  0  0  0  0  0  0  0
   -1.9952    8.1694  -18.8436 C   0  0  0  0  0  0  0  0  0  0  0  0
   -1.9915    9.4424  -19.4158 C   0  0  0  0  0  0  0  0  0  0  0  0
   -1.8753    9.5865  -20.7972 C   0  0  0  0  0  0  0  0  0  0  0  0
   -1.7675    8.4576  -21.6080 C   0  0  0  0  0  0  0  0  0  0  0  0
   -1.7703    7.1831  -21.0371 C   0  0  0  0  0  0  0  0  0  0  0  0
   -6.6291    5.0456  -16.1731 C   0  0  0  0  0  0  0  0  0  0  0  0
   -6.1130    4.2255  -10.9887 C   0  0  0  0  0  0  0  0  0  0  0  0
   -2.0451    2.7734   -8.0969 C   0  0  0  0  0  0  0  0  0  0  0  0
   -0.8126    2.3009   -7.7824 N   0  0  0  0  0  0  0  0  0  0  0  0
  1  2  1  0
  2  3  1  0
  3  4  2  0
  4  5  1  0
  5  6  2  0
  6  7  1  0
  7  8  1  0
  8  9  2  0
  8 10  1  0
 10 11  2  0
 11 12  1  0
 12 13  2  0
 13 14  1  0
 14 15  1  0
 15 16  1  0
 16 17  2  0
 16 18  1  0
 18 19  2  0
 19 20  1  0
 20 21  1  0
 20 22  2  0
 22 23  1  0
 23 24  1  0
 24 25  1  0
 25 26  2  0
 25 27  1  0
 27 28  1  0
 28 29  1  0
 29 30  2  0
 30 31  1  0
 31 32  2  0
 32 33  1  0
 33 34  2  0
 23 35  2  0
 14 36  2  0
  6 37  1  0
 37 38  2  0
 38  3  1  0
 36 10  1  0
 35 18  1  0
 34 29  1  0
M  END
>  <name>  (60) 
P103432

>  <alias>  (60) 
None

>  <smina_score_min>  (60) 
-7.567

>  <exports>  (60) 
['/opt/xchem-fragalysis-2/maxwin/BulkDock/OUTPUTS/openbind_xx01zvns2b_c2_elabs_1LOUTNY.sdf', '/opt/xchem-fragalysis-2/maxwin/BulkDock/OUTPUTS/openbind_xx01zvns2b_c2_elabs_1LSYIIV.sdf']

>  <tags>  (60) 
syndirella_placed,openbind_xx01zvns2b_c2_elabs,openbind_xx01zvns2b_c2_elabs_scored_6.2plus,syndirella_product,openbind_xx01zvns2b_c2_elabs_scored,openbind_xx01zvns2b_c2_elabs_scored_top80percent,BulkDock Fragalysis export

>  <subsites>  (60) 
1 - Z4590/B/203/1

>  <smiles>  (60) 
COc1ccc(NC(=O)c2cccc(NC(=O)c3cc(Cl)cc(NC(=O)OCc4ccccc4)c3)c2)cn1

>  <HIPPO Pose ID>  (60) 
103432

>  <energy_score>  (60) 
-34.948676

>  <inchikey>  (60) 
ZXKQMJBCDPKMPS-UHFFFAOYSA-N

>  <gnina_score_min>  (60) 
6.206

>  <gnina_score>  (60) 
6.187

>  <ref_mols>  (60) 
Z2992a

>  <HIPPO Compound ID>  (60) 
163137

>  <distance_score>  (60) 
1.628748

>  <rmsd(smina/fragmenstein)>  (60) 
1.611

>  <ref_pdb>  (60) 
Z2992a

>  <inspiration_score>  (60) 
None

$$$$
P103435
     RDKit          3D

 38 42  0  0  0  0  0  0  0  0999 V2000
  -12.3135    2.0750   -5.0695 O   0  0  0  0  0  0  0  0  0  0  0  0
  -11.1584    2.4383   -5.2134 C   0  0  0  0  0  0  0  0  0  0  0  0
  -10.1651    1.8954   -6.1898 C   0  0  0  0  0  0  0  0  0  0  0  0
   -9.0760    2.9731   -6.2650 C   0  0  1  0  0  0  0  0  0  0  0  0
   -8.8896    3.5379   -7.6047 N   0  0  0  0  0  0  0  0  0  0  0  0
   -9.0801    2.7511   -8.8268 C   0  0  0  0  0  0  0  0  0  0  0  0
   -8.5193    3.6391   -9.8850 C   0  0  0  0  0  0  0  0  0  0  0  0
   -8.5299    3.5071  -11.2640 C   0  0  0  0  0  0  0  0  0  0  0  0
   -7.9121    4.5059  -12.0245 C   0  0  0  0  0  0  0  0  0  0  0  0
   -7.8511    4.3781  -13.4085 N   0  0  0  0  0  0  0  0  0  0  0  0
   -7.1814    5.2800  -14.4722 C   0  0  0  0  0  0  0  0  0  0  0  0
   -6.5113    6.2288  -14.3471 O   0  0  0  0  0  0  0  0  0  0  0  0
   -7.4474    4.8221  -15.8583 C   0  0  0  0  0  0  0  0  0  0  0  0
   -8.7348    4.4952  -16.2756 C   0  0  0  0  0  0  0  0  0  0  0  0
   -8.9695    4.2995  -17.6338 C   0  0  0  0  0  0  0  0  0  0  0  0
  -10.5755    4.0642  -18.1821 Cl  0  0  0  0  0  0  0  0  0  0  0  0
   -7.9397    4.4015  -18.5672 C   0  0  0  0  0  0  0  0  0  0  0  0
   -6.6510    4.7117  -18.1429 C   0  0  0  0  0  0  0  0  0  0  0  0
   -5.6459    4.8647  -19.0904 N   0  0  0  0  0  0  0  0  0  0  0  0
   -4.1425    5.0897  -18.9178 C   0  0  0  0  0  0  0  0  0  0  0  0
   -3.5110    5.2603  -17.9564 O   0  0  0  0  0  0  0  0  0  0  0  0
   -3.6384    5.1154  -20.1816 O   0  0  0  0  0  0  0  0  0  0  0  0
   -2.2381    5.4171  -20.2839 C   0  0  0  0  0  0  0  0  0  0  0  0
   -2.0635    6.9085  -20.4506 C   0  0  0  0  0  0  0  0  0  0  0  0
   -1.9255    7.7439  -19.3322 C   0  0  0  0  0  0  0  0  0  0  0  0
   -1.8047    9.1260  -19.4877 C   0  0  0  0  0  0  0  0  0  0  0  0
   -1.8196    9.6874  -20.7628 C   0  0  0  0  0  0  0  0  0  0  0  0
   -1.9613    8.8682  -21.8817 C   0  0  0  0  0  0  0  0  0  0  0  0
   -2.0885    7.4863  -21.7267 C   0  0  0  0  0  0  0  0  0  0  0  0
   -6.4036    4.9165  -16.7881 C   0  0  0  0  0  0  0  0  0  0  0  0
   -7.3232    5.6233  -11.3987 C   0  0  0  0  0  0  0  0  0  0  0  0
   -7.3035    5.7408  -10.0107 C   0  0  0  0  0  0  0  0  0  0  0  0
   -7.8946    4.7277   -9.2892 C   0  0  0  0  0  0  0  0  0  0  0  0
   -7.9813    4.5673   -7.8395 C   0  0  0  0  0  0  0  0  0  0  0  0
   -7.3334    5.2325   -7.0553 O   0  0  0  0  0  0  0  0  0  0  0  0
   -9.5689    3.9989   -5.2290 C   0  0  0  0  0  0  0  0  0  0  0  0
   -9.1773    5.1380   -5.0227 O   0  0  0  0  0  0  0  0  0  0  0  0
  -10.6091    3.4710   -4.5446 N   0  0  0  0  0  0  0  0  0  0  0  0
  1  2  2  0
  2  3  1  0
  3  4  1  0
  4  5  1  6
  5  6  1  0
  6  7  1  0
  7  8  2  0
  8  9  1  0
  9 10  1  0
 10 11  1  0
 11 12  2  0
 11 13  1  0
 13 14  2  0
 14 15  1  0
 15 16  1  0
 15 17  2  0
 17 18  1  0
 18 19  1  0
 19 20  1  0
 20 21  2  0
 20 22  1  0
 22 23  1  0
 23 24  1  0
 24 25  2  0
 25 26  1  0
 26 27  2  0
 27 28  1  0
 28 29  2  0
 18 30  2  0
  9 31  2  0
 31 32  1  0
 32 33  2  0
 33 34  1  0
 34 35  2  0
  4 36  1  0
 36 37  2  0
 36 38  1  0
 38  2  1  0
 34  5  1  0
 33  7  1  0
 30 13  1  0
 29 24  1  0
M  END
>  <name>  (61) 
P103435

>  <alias>  (61) 
None

>  <smina_score_min>  (61) 
-9.195

>  <exports>  (61) 
['/opt/xchem-fragalysis-2/maxwin/BulkDock/OUTPUTS/openbind_xx01zvns2b_c2_elabs_1LOUTNY.sdf', '/opt/xchem-fragalysis-2/maxwin/BulkDock/OUTPUTS/openbind_xx01zvns2b_c2_elabs_1LSYIIV.sdf']

>  <tags>  (61) 
syndirella_placed,openbind_xx01zvns2b_c2_elabs,openbind_xx01zvns2b_c2_elabs_scored_6.2plus,syndirella_product,openbind_xx01zvns2b_c2_elabs_scored,openbind_xx01zvns2b_c2_elabs_scored_top80percent,BulkDock Fragalysis export

>  <subsites>  (61) 
1 - Z4590/B/203/1

>  <smiles>  (61) 
O=C1C[C@@H](N2Cc3cc(NC(=O)c4cc(Cl)cc(NC(=O)OCc5ccccc5)c4)ccc3C2=O)C(=O)N1

>  <HIPPO Pose ID>  (61) 
103435

>  <energy_score>  (61) 
-6.779263

>  <inchikey>  (61) 
YNPVKLKTLJNDDE-JOCHJYFZSA-N

>  <gnina_score_min>  (61) 
6.383

>  <gnina_score>  (61) 
6.342

>  <ref_mols>  (61) 
Z2992a

>  <HIPPO Compound ID>  (61) 
163140

>  <distance_score>  (61) 
0.551301

>  <rmsd(smina/fragmenstein)>  (61) 
1.054

>  <ref_pdb>  (61) 
Z2992a

>  <inspiration_score>  (61) 
None

$$$$
P103437
     RDKit          3D

 38 41  0  0  0  0  0  0  0  0999 V2000
   -4.6545    1.8389  -12.2772 C   0  0  0  0  0  0  0  0  0  0  0  0
   -6.0566    2.0491  -12.4557 O   0  0  0  0  0  0  0  0  0  0  0  0
   -6.5312    3.0107  -11.5998 C   0  0  0  0  0  0  0  0  0  0  0  0
   -6.4523    2.7964  -10.2226 C   0  0  0  0  0  0  0  0  0  0  0  0
   -6.9851    3.7265   -9.3362 C   0  0  0  0  0  0  0  0  0  0  0  0
   -7.6620    4.8509   -9.8193 C   0  0  0  0  0  0  0  0  0  0  0  0
   -8.1460    5.9412   -8.9017 C   0  0  0  0  0  0  0  0  0  0  0  0
   -8.7134    6.8699   -9.4127 O   0  0  0  0  0  0  0  0  0  0  0  0
   -7.7578    5.7251   -7.5516 N   0  0  0  0  0  0  0  0  0  0  0  0
   -7.8291    6.6304   -6.3527 C   0  0  0  0  0  0  0  0  0  0  0  0
   -7.2380    6.1186   -5.0234 C   0  0  0  0  0  0  0  0  0  0  0  0
   -8.1292    5.1108   -4.4508 N   0  0  0  0  0  0  0  0  0  0  0  0
   -7.5192    4.4141   -3.3265 C   0  0  0  0  0  0  0  0  0  0  0  0
   -8.4649    4.1847   -5.5361 C   0  0  0  0  0  0  0  0  0  0  0  0
   -8.8767    4.9937   -6.7905 C   0  0  0  0  0  0  0  0  0  0  0  0
   -7.8243    5.0129  -11.2061 C   0  0  0  0  0  0  0  0  0  0  0  0
   -7.2209    4.1237  -12.1000 C   0  0  0  0  0  0  0  0  0  0  0  0
   -7.3213    4.4052  -13.4643 N   0  0  0  0  0  0  0  0  0  0  0  0
   -6.4288    4.1218  -14.5528 C   0  0  0  0  0  0  0  0  0  0  0  0
   -5.3310    3.6409  -14.5607 O   0  0  0  0  0  0  0  0  0  0  0  0
   -7.0019    4.4108  -15.9087 C   0  0  0  0  0  0  0  0  0  0  0  0
   -8.3580    4.2211  -16.2070 C   0  0  0  0  0  0  0  0  0  0  0  0
   -8.7806    4.3225  -17.5300 C   0  0  0  0  0  0  0  0  0  0  0  0
  -10.4305    4.1058  -17.9523 Cl  0  0  0  0  0  0  0  0  0  0  0  0
   -7.8774    4.5998  -18.5495 C   0  0  0  0  0  0  0  0  0  0  0  0
   -6.5330    4.8031  -18.2628 C   0  0  0  0  0  0  0  0  0  0  0  0
   -5.6651    5.0374  -19.3253 N   0  0  0  0  0  0  0  0  0  0  0  0
   -4.2592    5.1987  -19.3594 C   0  0  0  0  0  0  0  0  0  0  0  0
   -3.4403    5.0988  -18.4970 O   0  0  0  0  0  0  0  0  0  0  0  0
   -3.9432    5.4558  -20.6598 O   0  0  0  0  0  0  0  0  0  0  0  0
   -2.5433    5.6033  -20.9414 C   0  0  0  0  0  0  0  0  0  0  0  0
   -2.1913    7.0702  -20.9131 C   0  0  0  0  0  0  0  0  0  0  0  0
   -2.3780    7.8691  -22.0491 C   0  0  0  0  0  0  0  0  0  0  0  0
   -2.0823    9.2330  -22.0113 C   0  0  0  0  0  0  0  0  0  0  0  0
   -1.6084    9.8130  -20.8355 C   0  0  0  0  0  0  0  0  0  0  0  0
   -1.4302    9.0302  -19.6963 C   0  0  0  0  0  0  0  0  0  0  0  0
   -1.7211    7.6658  -19.7342 C   0  0  0  0  0  0  0  0  0  0  0  0
   -6.0981    4.7171  -16.9422 C   0  0  0  0  0  0  0  0  0  0  0  0
  1  2  1  0
  2  3  1  0
  3  4  2  0
  4  5  1  0
  5  6  2  0
  6  7  1  0
  7  8  2  0
  7  9  1  0
  9 10  1  0
 10 11  1  0
 11 12  1  0
 12 13  1  0
 12 14  1  0
 14 15  1  0
  6 16  1  0
 16 17  2  0
 17 18  1  0
 18 19  1  0
 19 20  2  0
 19 21  1  0
 21 22  2  0
 22 23  1  0
 23 24  1  0
 23 25  2  0
 25 26  1  0
 26 27  1  0
 27 28  1  0
 28 29  2  0
 28 30  1  0
 30 31  1  0
 31 32  1  0
 32 33  2  0
 33 34  1  0
 34 35  2  0
 35 36  1  0
 36 37  2  0
 26 38  2  0
 17  3  1  0
 38 21  1  0
 15  9  1  0
 37 32  1  0
M  END
>  <name>  (62) 
P103437

>  <alias>  (62) 
None

>  <smina_score_min>  (62) 
-8.189

>  <exports>  (62) 
['/opt/xchem-fragalysis-2/maxwin/BulkDock/OUTPUTS/openbind_xx01zvns2b_c2_elabs_1LOUTNY.sdf', '/opt/xchem-fragalysis-2/maxwin/BulkDock/OUTPUTS/openbind_xx01zvns2b_c2_elabs_1LSYIIV.sdf']

>  <tags>  (62) 
syndirella_placed,openbind_xx01zvns2b_c2_elabs,openbind_xx01zvns2b_c2_elabs_scored_6.2plus,syndirella_product,openbind_xx01zvns2b_c2_elabs_scored,openbind_xx01zvns2b_c2_elabs_scored_top80percent,BulkDock Fragalysis export

>  <subsites>  (62) 
1 - Z4590/B/203/1

>  <smiles>  (62) 
COc1ccc(C(=O)N2CCN(C)CC2)cc1NC(=O)c1cc(Cl)cc(NC(=O)OCc2ccccc2)c1

>  <HIPPO Pose ID>  (62) 
103437

>  <energy_score>  (62) 
-14.171735

>  <inchikey>  (62) 
KZIZVMPODVWBRU-UHFFFAOYSA-N

>  <gnina_score_min>  (62) 
6.272

>  <gnina_score>  (62) 
6.062

>  <ref_mols>  (62) 
Z2992a

>  <HIPPO Compound ID>  (62) 
163142

>  <distance_score>  (62) 
1.646296

>  <rmsd(smina/fragmenstein)>  (62) 
1.234

>  <ref_pdb>  (62) 
Z2992a

>  <inspiration_score>  (62) 
None

$$$$
P103442
     RDKit          3D

 38 42  0  0  0  0  0  0  0  0999 V2000
   -1.3921    5.6397   -8.2080 C   0  0  0  0  0  0  0  0  0  0  0  0
   -2.6387    4.8520   -8.4420 C   0  0  0  0  0  0  0  0  0  0  0  0
   -3.7848    5.0795   -7.7074 C   0  0  0  0  0  0  0  0  0  0  0  0
   -4.9214    4.3142   -7.9767 C   0  0  0  0  0  0  0  0  0  0  0  0
   -4.9168    3.3470   -8.9793 C   0  0  0  0  0  0  0  0  0  0  0  0
   -6.0318    2.5511   -9.2676 N   0  0  0  0  0  0  0  0  0  0  0  0
   -6.0133    1.9207  -10.5880 C   0  0  0  0  0  0  0  0  0  0  0  0
   -6.4859    2.8985  -11.6761 C   0  0  0  0  0  0  0  0  0  0  0  0
   -7.4026    4.0334  -11.2538 C   0  0  0  0  0  0  0  0  0  0  0  0
   -7.7528    4.1277   -9.8773 C   0  0  0  0  0  0  0  0  0  0  0  0
   -8.4003    5.2602   -9.3758 C   0  0  0  0  0  0  0  0  0  0  0  0
   -8.7226    6.3007  -10.2296 C   0  0  0  0  0  0  0  0  0  0  0  0
   -8.4825    6.1705  -11.5958 C   0  0  0  0  0  0  0  0  0  0  0  0
   -7.8331    5.0449  -12.1296 C   0  0  0  0  0  0  0  0  0  0  0  0
   -7.7540    5.0500  -13.5309 N   0  0  0  0  0  0  0  0  0  0  0  0
   -6.8480    4.2426  -14.4885 C   0  0  0  0  0  0  0  0  0  0  0  0
   -5.9739    3.5048  -14.2602 O   0  0  0  0  0  0  0  0  0  0  0  0
   -7.2541    4.4410  -15.8970 C   0  0  0  0  0  0  0  0  0  0  0  0
   -8.5858    4.2690  -16.2811 C   0  0  0  0  0  0  0  0  0  0  0  0
   -8.9004    4.3125  -17.6330 C   0  0  0  0  0  0  0  0  0  0  0  0
  -10.5272    4.1301  -18.1439 Cl  0  0  0  0  0  0  0  0  0  0  0  0
   -7.9098    4.5269  -18.5878 C   0  0  0  0  0  0  0  0  0  0  0  0
   -6.5877    4.7216  -18.1961 C   0  0  0  0  0  0  0  0  0  0  0  0
   -5.6215    4.9425  -19.1690 N   0  0  0  0  0  0  0  0  0  0  0  0
   -4.1089    5.1294  -19.0433 C   0  0  0  0  0  0  0  0  0  0  0  0
   -3.4345    5.2054  -18.0995 O   0  0  0  0  0  0  0  0  0  0  0  0
   -3.6543    5.2418  -20.3209 O   0  0  0  0  0  0  0  0  0  0  0  0
   -2.2491    5.5055  -20.4509 C   0  0  0  0  0  0  0  0  0  0  0  0
   -2.0451    6.9990  -20.5401 C   0  0  0  0  0  0  0  0  0  0  0  0
   -2.0785    7.6438  -21.7831 C   0  0  0  0  0  0  0  0  0  0  0  0
   -1.9321    9.0294  -21.8663 C   0  0  0  0  0  0  0  0  0  0  0  0
   -1.7627    9.7856  -20.7075 C   0  0  0  0  0  0  0  0  0  0  0  0
   -1.7380    9.1569  -19.4643 C   0  0  0  0  0  0  0  0  0  0  0  0
   -1.8775    7.7707  -19.3807 C   0  0  0  0  0  0  0  0  0  0  0  0
   -6.2563    4.6722  -16.8462 C   0  0  0  0  0  0  0  0  0  0  0  0
   -7.3789    3.0099   -8.9281 C   0  0  0  0  0  0  0  0  0  0  0  0
   -3.7556    3.1565   -9.6466 N   0  0  0  0  0  0  0  0  0  0  0  0
   -2.6161    3.9039   -9.3898 N   0  0  0  0  0  0  0  0  0  0  0  0
  1  2  1  0
  2  3  2  0
  3  4  1  0
  4  5  2  0
  5  6  1  0
  6  7  1  0
  7  8  1  0
  8  9  1  0
  9 10  2  0
 10 11  1  0
 11 12  2  0
 12 13  1  0
 13 14  2  0
 14 15  1  0
 15 16  1  0
 16 17  2  0
 16 18  1  0
 18 19  2  0
 19 20  1  0
 20 21  1  0
 20 22  2  0
 22 23  1  0
 23 24  1  0
 24 25  1  0
 25 26  2  0
 25 27  1  0
 27 28  1  0
 28 29  1  0
 29 30  2  0
 30 31  1  0
 31 32  2  0
 32 33  1  0
 33 34  2  0
 23 35  2  0
 10 36  1  0
  5 37  1  0
 37 38  2  0
 38  2  1  0
 36  6  1  0
 14  9  1  0
 35 18  1  0
 34 29  1  0
M  END
>  <name>  (63) 
P103442

>  <alias>  (63) 
None

>  <smina_score_min>  (63) 
-7.864

>  <exports>  (63) 
['/opt/xchem-fragalysis-2/maxwin/BulkDock/OUTPUTS/openbind_xx01zvns2b_c2_elabs_1LOUTNY.sdf', '/opt/xchem-fragalysis-2/maxwin/BulkDock/OUTPUTS/openbind_xx01zvns2b_c2_elabs_1LSYIIV.sdf']

>  <tags>  (63) 
syndirella_placed,openbind_xx01zvns2b_c2_elabs,openbind_xx01zvns2b_c2_elabs_scored_6.2plus,syndirella_product,openbind_xx01zvns2b_c2_elabs_scored,openbind_xx01zvns2b_c2_elabs_scored_top80percent,BulkDock Fragalysis export

>  <subsites>  (63) 
1 - Z4590/B/203/1

>  <smiles>  (63) 
Cc1ccc(N2CCc3c(cccc3NC(=O)c3cc(Cl)cc(NC(=O)OCc4ccccc4)c3)C2)nn1

>  <HIPPO Pose ID>  (63) 
103442

>  <energy_score>  (63) 
-33.222666

>  <inchikey>  (63) 
UDXHUOVLBQUUDZ-UHFFFAOYSA-N

>  <gnina_score_min>  (63) 
6.804

>  <gnina_score>  (63) 
6.65

>  <ref_mols>  (63) 
Z2992a

>  <HIPPO Compound ID>  (63) 
163158

>  <distance_score>  (63) 
0.892903

>  <rmsd(smina/fragmenstein)>  (63) 
1.831

>  <ref_pdb>  (63) 
Z2992a

>  <inspiration_score>  (63) 
None

$$$$
P103449
     RDKit          3D

 39 43  0  0  0  0  0  0  0  0999 V2000
   -2.2928    1.2754   -9.1010 O   0  0  0  0  0  0  0  0  0  0  0  0
   -3.1903    1.5165   -9.8930 C   0  0  0  0  0  0  0  0  0  0  0  0
   -4.5190    0.8244   -9.9271 C   0  0  0  0  0  0  0  0  0  0  0  0
   -5.2953    1.5378  -11.0087 C   0  0  1  0  0  0  0  0  0  0  0  0
   -6.5412    2.1791  -10.6232 N   0  0  0  0  0  0  0  0  0  0  0  0
   -6.6538    3.0524   -9.5731 C   0  0  0  0  0  0  0  0  0  0  0  0
   -5.8208    3.2809   -8.7122 O   0  0  0  0  0  0  0  0  0  0  0  0
   -7.7390    3.9852   -9.8885 C   0  0  0  0  0  0  0  0  0  0  0  0
   -7.9670    5.1966   -9.2528 C   0  0  0  0  0  0  0  0  0  0  0  0
   -8.4116    6.2566  -10.0417 C   0  0  0  0  0  0  0  0  0  0  0  0
   -8.5396    6.0955  -11.4336 C   0  0  0  0  0  0  0  0  0  0  0  0
   -8.3385    4.8465  -12.0296 C   0  0  0  0  0  0  0  0  0  0  0  0
   -8.1589    4.7135  -13.3962 N   0  0  0  0  0  0  0  0  0  0  0  0
   -7.6580    5.7221  -14.4390 C   0  0  0  0  0  0  0  0  0  0  0  0
   -7.3887    6.8495  -14.3302 O   0  0  0  0  0  0  0  0  0  0  0  0
   -7.6182    5.1035  -15.7820 C   0  0  0  0  0  0  0  0  0  0  0  0
   -8.8138    4.6159  -16.2988 C   0  0  0  0  0  0  0  0  0  0  0  0
   -8.8870    4.3100  -17.6469 C   0  0  0  0  0  0  0  0  0  0  0  0
  -10.4165    3.9496  -18.3154 Cl  0  0  0  0  0  0  0  0  0  0  0  0
   -7.7680    4.4170  -18.4656 C   0  0  0  0  0  0  0  0  0  0  0  0
   -6.5525    4.8432  -17.9266 C   0  0  0  0  0  0  0  0  0  0  0  0
   -5.4617    4.9349  -18.7830 N   0  0  0  0  0  0  0  0  0  0  0  0
   -4.0030    5.2870  -18.4986 C   0  0  0  0  0  0  0  0  0  0  0  0
   -3.4889    5.6328  -17.5154 O   0  0  0  0  0  0  0  0  0  0  0  0
   -3.3784    5.1585  -19.6997 O   0  0  0  0  0  0  0  0  0  0  0  0
   -1.9985    5.5453  -19.7365 C   0  0  0  0  0  0  0  0  0  0  0  0
   -1.9092    6.9994  -20.1299 C   0  0  0  0  0  0  0  0  0  0  0  0
   -1.9008    7.3718  -21.4809 C   0  0  0  0  0  0  0  0  0  0  0  0
   -1.8557    8.7196  -21.8425 C   0  0  0  0  0  0  0  0  0  0  0  0
   -1.8290    9.7069  -20.8585 C   0  0  0  0  0  0  0  0  0  0  0  0
   -1.8489    9.3483  -19.5121 C   0  0  0  0  0  0  0  0  0  0  0  0
   -1.8901    8.0016  -19.1494 C   0  0  0  0  0  0  0  0  0  0  0  0
   -6.4757    5.2028  -16.5809 C   0  0  0  0  0  0  0  0  0  0  0  0
   -8.0408    3.7718  -11.2184 C   0  0  0  0  0  0  0  0  0  0  0  0
   -7.3678    2.5507  -11.6483 C   0  0  0  0  0  0  0  0  0  0  0  0
   -7.4165    2.0814  -12.7733 O   0  0  0  0  0  0  0  0  0  0  0  0
   -4.3186    2.5982  -11.5114 C   0  0  0  0  0  0  0  0  0  0  0  0
   -4.5539    3.4929  -12.3089 O   0  0  0  0  0  0  0  0  0  0  0  0
   -3.1279    2.4298  -10.8869 N   0  0  0  0  0  0  0  0  0  0  0  0
  1  2  2  0
  2  3  1  0
  3  4  1  0
  4  5  1  1
  5  6  1  0
  6  7  2  0
  6  8  1  0
  8  9  2  0
  9 10  1  0
 10 11  2  0
 11 12  1  0
 12 13  1  0
 13 14  1  0
 14 15  2  0
 14 16  1  0
 16 17  2  0
 17 18  1  0
 18 19  1  0
 18 20  2  0
 20 21  1  0
 21 22  1  0
 22 23  1  0
 23 24  2  0
 23 25  1  0
 25 26  1  0
 26 27  1  0
 27 28  2  0
 28 29  1  0
 29 30  2  0
 30 31  1  0
 31 32  2  0
 21 33  2  0
 12 34  2  0
 34 35  1  0
 35 36  2  0
  4 37  1  0
 37 38  2  0
 37 39  1  0
 39  2  1  0
 35  5  1  0
 34  8  1  0
 33 16  1  0
 32 27  1  0
M  END
>  <name>  (64) 
P103449

>  <alias>  (64) 
None

>  <smina_score_min>  (64) 
-8.841

>  <exports>  (64) 
['/opt/xchem-fragalysis-2/maxwin/BulkDock/OUTPUTS/openbind_xx01zvns2b_c2_elabs_1LOUTNY.sdf', '/opt/xchem-fragalysis-2/maxwin/BulkDock/OUTPUTS/openbind_xx01zvns2b_c2_elabs_1LSYIIV.sdf']

>  <tags>  (64) 
syndirella_placed,openbind_xx01zvns2b_c2_elabs,openbind_xx01zvns2b_c2_elabs_scored_6.2plus,syndirella_product,openbind_xx01zvns2b_c2_elabs_scored,openbind_xx01zvns2b_c2_elabs_scored_top80percent,BulkDock Fragalysis export

>  <subsites>  (64) 
1 - Z4590/B/203/1

>  <smiles>  (64) 
O=C1C[C@@H](N2C(=O)c3cccc(NC(=O)c4cc(Cl)cc(NC(=O)OCc5ccccc5)c4)c3C2=O)C(=O)N1

>  <HIPPO Pose ID>  (64) 
103449

>  <energy_score>  (64) 
-35.3796

>  <inchikey>  (64) 
ZLNTUFQNOXHXEB-HXUWFJFHSA-N

>  <gnina_score_min>  (64) 
6.587

>  <gnina_score>  (64) 
6.582

>  <ref_mols>  (64) 
Z2992a

>  <HIPPO Compound ID>  (64) 
163173

>  <distance_score>  (64) 
0.91881

>  <rmsd(smina/fragmenstein)>  (64) 
1.51

>  <ref_pdb>  (64) 
Z2992a

>  <inspiration_score>  (64) 
None

$$$$
P103454
     RDKit          3D

 39 42  0  0  0  0  0  0  0  0999 V2000
   -2.5875    4.5895   -7.3507 C   0  0  0  0  0  0  0  0  0  0  0  0
   -2.5908    6.1220   -7.3801 C   0  0  0  0  0  0  0  0  0  0  0  0
   -2.5489    6.7222   -5.9705 C   0  0  0  0  0  0  0  0  0  0  0  0
   -1.3530    6.6005   -8.1541 C   0  0  0  0  0  0  0  0  0  0  0  0
   -3.7184    6.6298   -8.1379 O   0  0  0  0  0  0  0  0  0  0  0  0
   -4.9963    6.3863   -7.7409 C   0  0  0  0  0  0  0  0  0  0  0  0
   -5.2974    5.8059   -6.7823 O   0  0  0  0  0  0  0  0  0  0  0  0
   -5.8597    7.0298   -8.8186 N   0  0  0  0  0  0  0  0  0  0  0  0
   -7.3216    7.0190   -9.0087 C   0  0  0  0  0  0  0  0  0  0  0  0
   -7.7882    5.7101   -9.7969 C   0  0  0  0  0  0  0  0  0  0  0  0
   -8.2909    4.5769   -9.1310 C   0  0  0  0  0  0  0  0  0  0  0  0
   -8.6741    3.4251   -9.8200 C   0  0  0  0  0  0  0  0  0  0  0  0
   -8.5528    3.3677  -11.2051 C   0  0  0  0  0  0  0  0  0  0  0  0
   -8.0345    4.4530  -11.9009 C   0  0  0  0  0  0  0  0  0  0  0  0
   -7.8728    4.3555  -13.2815 N   0  0  0  0  0  0  0  0  0  0  0  0
   -7.3290    5.3809  -14.3044 C   0  0  0  0  0  0  0  0  0  0  0  0
   -6.8600    6.4384  -14.1403 O   0  0  0  0  0  0  0  0  0  0  0  0
   -7.4819    4.9065  -15.7029 C   0  0  0  0  0  0  0  0  0  0  0  0
   -8.7357    4.5248  -16.1778 C   0  0  0  0  0  0  0  0  0  0  0  0
   -8.9029    4.3108  -17.5423 C   0  0  0  0  0  0  0  0  0  0  0  0
  -10.4722    4.0203  -18.1667 Cl  0  0  0  0  0  0  0  0  0  0  0  0
   -7.8336    4.4381  -18.4246 C   0  0  0  0  0  0  0  0  0  0  0  0
   -6.5752    4.7931  -17.9423 C   0  0  0  0  0  0  0  0  0  0  0  0
   -5.5404    4.9456  -18.8579 N   0  0  0  0  0  0  0  0  0  0  0  0
   -4.0419    5.1492  -18.6386 C   0  0  0  0  0  0  0  0  0  0  0  0
   -3.4372    5.2994  -17.6574 O   0  0  0  0  0  0  0  0  0  0  0  0
   -3.5064    5.1418  -19.8881 O   0  0  0  0  0  0  0  0  0  0  0  0
   -2.1085    5.4497  -19.9782 C   0  0  0  0  0  0  0  0  0  0  0  0
   -1.9629    6.9265  -20.2557 C   0  0  0  0  0  0  0  0  0  0  0  0
   -1.8973    7.8469  -19.1995 C   0  0  0  0  0  0  0  0  0  0  0  0
   -1.8093    9.2160  -19.4560 C   0  0  0  0  0  0  0  0  0  0  0  0
   -1.7878    9.6790  -20.7703 C   0  0  0  0  0  0  0  0  0  0  0  0
   -1.8596    8.7741  -21.8284 C   0  0  0  0  0  0  0  0  0  0  0  0
   -1.9521    7.4046  -21.5730 C   0  0  0  0  0  0  0  0  0  0  0  0
   -6.3978    5.0353  -16.5808 C   0  0  0  0  0  0  0  0  0  0  0  0
   -7.6647    5.6060  -11.2015 C   0  0  0  0  0  0  0  0  0  0  0  0
   -7.8306    8.3918   -9.5842 C   0  0  0  0  0  0  0  0  0  0  0  0
   -7.9869    8.8904   -8.1372 C   0  0  0  0  0  0  0  0  0  0  0  0
   -8.1098    7.4176   -7.7108 C   0  0  0  0  0  0  0  0  0  0  0  0
  1  2  1  0
  2  3  1  0
  2  4  1  0
  2  5  1  0
  5  6  1  0
  6  7  2  0
  6  8  1  0
  8  9  1  0
  9 10  1  0
 10 11  2  0
 11 12  1  0
 12 13  2  0
 13 14  1  0
 14 15  1  0
 15 16  1  0
 16 17  2  0
 16 18  1  0
 18 19  2  0
 19 20  1  0
 20 21  1  0
 20 22  2  0
 22 23  1  0
 23 24  1  0
 24 25  1  0
 25 26  2  0
 25 27  1  0
 27 28  1  0
 28 29  1  0
 29 30  2  0
 30 31  1  0
 31 32  2  0
 32 33  1  0
 33 34  2  0
 23 35  2  0
 14 36  2  0
  9 37  1  0
 37 38  1  0
 38 39  1  0
 39  9  1  0
 36 10  1  0
 35 18  1  0
 34 29  1  0
M  END
>  <name>  (65) 
P103454

>  <alias>  (65) 
None

>  <smina_score_min>  (65) 
-7.763

>  <exports>  (65) 
['/opt/xchem-fragalysis-2/maxwin/BulkDock/OUTPUTS/openbind_xx01zvns2b_c2_elabs_1LOUTNY.sdf', '/opt/xchem-fragalysis-2/maxwin/BulkDock/OUTPUTS/openbind_xx01zvns2b_c2_elabs_1LSYIIV.sdf']

>  <tags>  (65) 
syndirella_placed,openbind_xx01zvns2b_c2_elabs,openbind_xx01zvns2b_c2_elabs_scored_6.2plus,syndirella_product,openbind_xx01zvns2b_c2_elabs_scored,openbind_xx01zvns2b_c2_elabs_scored_top80percent,BulkDock Fragalysis export

>  <subsites>  (65) 
1 - Z4590/B/203/1

>  <smiles>  (65) 
CC(C)(C)OC(=O)NC1(c2cccc(NC(=O)c3cc(Cl)cc(NC(=O)OCc4ccccc4)c3)c2)CCC1

>  <HIPPO Pose ID>  (65) 
103454

>  <energy_score>  (65) 
-68.821935

>  <inchikey>  (65) 
MUAYEUXXGOYMNE-UHFFFAOYSA-N

>  <gnina_score_min>  (65) 
6.301

>  <gnina_score>  (65) 
6.263

>  <ref_mols>  (65) 
Z2992a

>  <HIPPO Compound ID>  (65) 
163177

>  <distance_score>  (65) 
0.380226

>  <rmsd(smina/fragmenstein)>  (65) 
2.407

>  <ref_pdb>  (65) 
Z2992a

>  <inspiration_score>  (65) 
None

$$$$
P103458
     RDKit          3D

 39 42  0  0  0  0  0  0  0  0999 V2000
   -3.3490    5.0558  -17.9704 O   0  0  0  0  0  0  0  0  0  0  0  0
   -4.0355    5.0914  -18.9078 C   0  0  0  0  0  0  0  0  0  0  0  0
   -5.5556    4.9833  -19.0282 N   0  0  0  0  0  0  0  0  0  0  0  0
   -6.5217    4.7223  -18.0641 C   0  0  0  0  0  0  0  0  0  0  0  0
   -7.8419    4.5523  -18.4737 C   0  0  0  0  0  0  0  0  0  0  0  0
   -8.8390    4.2936  -17.5370 C   0  0  0  0  0  0  0  0  0  0  0  0
  -10.4588    4.1247  -18.0798 Cl  0  0  0  0  0  0  0  0  0  0  0  0
   -8.5326    4.1876  -16.1845 C   0  0  0  0  0  0  0  0  0  0  0  0
   -7.2009    4.3291  -15.7831 C   0  0  0  0  0  0  0  0  0  0  0  0
   -6.7991    4.0944  -14.3725 C   0  0  0  0  0  0  0  0  0  0  0  0
   -5.9850    3.2943  -14.1370 O   0  0  0  0  0  0  0  0  0  0  0  0
   -7.6136    4.9989  -13.4275 N   0  0  0  0  0  0  0  0  0  0  0  0
   -7.5332    5.1711  -12.0465 C   0  0  0  0  0  0  0  0  0  0  0  0
   -6.7124    4.3412  -11.2806 C   0  0  0  0  0  0  0  0  0  0  0  0
   -6.5560    4.5683   -9.9090 C   0  0  0  0  0  0  0  0  0  0  0  0
   -5.4571    3.8288   -9.1976 C   0  0  0  0  0  0  0  0  0  0  0  0
   -5.2377    2.7240   -9.4974 O   0  0  0  0  0  0  0  0  0  0  0  0
   -4.7220    4.7630   -8.2118 N   0  0  0  0  0  0  0  0  0  0  0  0
   -3.6211    4.5020   -7.3193 C   0  0  0  0  0  0  0  0  0  0  0  0
   -3.7424    5.1735   -5.9367 C   0  0  0  0  0  0  0  0  0  0  0  0
   -4.7258    4.5732   -5.0094 N   0  0  0  0  0  0  0  0  0  0  0  0
   -4.6364    5.2017   -3.6803 C   0  0  0  0  0  0  0  0  0  0  0  0
   -5.9544    4.8417   -3.0124 C   0  0  0  0  0  0  0  0  0  0  0  0
   -6.9082    4.5224   -4.1552 C   0  0  0  0  0  0  0  0  0  0  0  0
   -6.1190    4.8166   -5.4203 C   0  0  0  0  0  0  0  0  0  0  0  0
   -7.3349    5.5437   -9.2790 C   0  0  0  0  0  0  0  0  0  0  0  0
   -8.1460    6.3871  -10.0446 C   0  0  0  0  0  0  0  0  0  0  0  0
   -8.9302    7.6908   -9.2219 Cl  0  0  0  0  0  0  0  0  0  0  0  0
   -8.2309    6.2212  -11.4331 C   0  0  0  0  0  0  0  0  0  0  0  0
   -9.0781    7.3637  -12.4354 Cl  0  0  0  0  0  0  0  0  0  0  0  0
   -6.1977    4.6104  -16.7151 C   0  0  0  0  0  0  0  0  0  0  0  0
   -3.5944    5.2563  -20.1829 O   0  0  0  0  0  0  0  0  0  0  0  0
   -2.1885    5.5002  -20.3312 C   0  0  0  0  0  0  0  0  0  0  0  0
   -1.9895    6.9918  -20.4488 C   0  0  0  0  0  0  0  0  0  0  0  0
   -1.9887    7.6093  -21.7063 C   0  0  0  0  0  0  0  0  0  0  0  0
   -1.8550    8.9945  -21.8145 C   0  0  0  0  0  0  0  0  0  0  0  0
   -1.7318    9.7764  -20.6671 C   0  0  0  0  0  0  0  0  0  0  0  0
   -1.7411    9.1744  -19.4103 C   0  0  0  0  0  0  0  0  0  0  0  0
   -1.8693    7.7889  -19.3009 C   0  0  0  0  0  0  0  0  0  0  0  0
  1  2  2  0
  2  3  1  0
  3  4  1  0
  4  5  2  0
  5  6  1  0
  6  7  1  0
  6  8  2  0
  8  9  1  0
  9 10  1  0
 10 11  2  0
 10 12  1  0
 12 13  1  0
 13 14  2  0
 14 15  1  0
 15 16  1  0
 16 17  2  0
 16 18  1  0
 18 19  1  0
 19 20  1  0
 20 21  1  0
 21 22  1  0
 22 23  1  0
 23 24  1  0
 24 25  1  0
 15 26  2  0
 26 27  1  0
 27 28  1  0
 27 29  2  0
 29 30  1  0
  9 31  2  0
  2 32  1  0
 32 33  1  0
 33 34  1  0
 34 35  2  0
 35 36  1  0
 36 37  2  0
 37 38  1  0
 38 39  2  0
 31  4  1  0
 39 34  1  0
 29 13  1  0
 25 21  1  0
M  END
>  <name>  (66) 
P103458

>  <alias>  (66) 
None

>  <smina_score_min>  (66) 
-7.36

>  <exports>  (66) 
['/opt/xchem-fragalysis-2/maxwin/BulkDock/OUTPUTS/openbind_xx01zvns2b_c2_elabs_1LOUTNY.sdf', '/opt/xchem-fragalysis-2/maxwin/BulkDock/OUTPUTS/openbind_xx01zvns2b_c2_elabs_1LSYIIV.sdf']

>  <tags>  (66) 
syndirella_placed,openbind_xx01zvns2b_c2_elabs,openbind_xx01zvns2b_c2_elabs_scored_6.2plus,syndirella_product,openbind_xx01zvns2b_c2_elabs_scored,openbind_xx01zvns2b_c2_elabs_scored_top80percent,BulkDock Fragalysis export

>  <subsites>  (66) 
1 - Z4590/B/203/1

>  <smiles>  (66) 
O=C(Nc1cc(Cl)cc(C(=O)Nc2cc(C(=O)NCCN3CCCC3)cc(Cl)c2Cl)c1)OCc1ccccc1

>  <HIPPO Pose ID>  (66) 
103458

>  <energy_score>  (66) 
-9.868147

>  <inchikey>  (66) 
GWYKIFJNZUBSLX-UHFFFAOYSA-N

>  <gnina_score_min>  (66) 
6.425

>  <gnina_score>  (66) 
6.439

>  <ref_mols>  (66) 
Z2992a

>  <HIPPO Compound ID>  (66) 
163182

>  <distance_score>  (66) 
1.446076

>  <rmsd(smina/fragmenstein)>  (66) 
2.235

>  <ref_pdb>  (66) 
Z2992a

>  <inspiration_score>  (66) 
None

$$$$
P103460
     RDKit          3D

 39 42  0  0  0  0  0  0  0  0999 V2000
   -7.6979    3.0998  -11.2191 C   0  0  0  0  0  0  0  0  0  0  0  0
   -7.9052    4.5714  -11.0031 C   0  0  0  0  0  0  0  0  0  0  0  0
   -7.9135    5.4983  -12.0728 C   0  0  0  0  0  0  0  0  0  0  0  0
   -7.7874    5.2432  -13.4439 N   0  0  0  0  0  0  0  0  0  0  0  0
   -7.0563    4.1081  -14.1888 C   0  0  0  0  0  0  0  0  0  0  0  0
   -6.3803    3.2509  -13.7824 O   0  0  0  0  0  0  0  0  0  0  0  0
   -7.3121    4.2673  -15.6464 C   0  0  0  0  0  0  0  0  0  0  0  0
   -8.6211    4.1581  -16.1273 C   0  0  0  0  0  0  0  0  0  0  0  0
   -8.8512    4.2741  -17.4924 C   0  0  0  0  0  0  0  0  0  0  0  0
  -10.4437    4.1431  -18.1191 Cl  0  0  0  0  0  0  0  0  0  0  0  0
   -7.7983    4.5206  -18.3679 C   0  0  0  0  0  0  0  0  0  0  0  0
   -6.4974    4.6572  -17.8812 C   0  0  0  0  0  0  0  0  0  0  0  0
   -5.4868    4.8927  -18.8060 N   0  0  0  0  0  0  0  0  0  0  0  0
   -3.9854    5.0917  -18.6071 C   0  0  0  0  0  0  0  0  0  0  0  0
   -3.3578    5.1677  -17.6320 O   0  0  0  0  0  0  0  0  0  0  0  0
   -3.4868    5.2055  -19.8659 O   0  0  0  0  0  0  0  0  0  0  0  0
   -2.0876    5.4983  -19.9742 C   0  0  0  0  0  0  0  0  0  0  0  0
   -1.9426    6.9778  -20.2318 C   0  0  0  0  0  0  0  0  0  0  0  0
   -1.8960    7.8838  -19.1625 C   0  0  0  0  0  0  0  0  0  0  0  0
   -1.8070    9.2561  -19.4003 C   0  0  0  0  0  0  0  0  0  0  0  0
   -1.7671    9.7362  -20.7082 C   0  0  0  0  0  0  0  0  0  0  0  0
   -1.8206    8.8453  -21.7791 C   0  0  0  0  0  0  0  0  0  0  0  0
   -1.9131    7.4726  -21.5428 C   0  0  0  0  0  0  0  0  0  0  0  0
   -6.2483    4.5316  -16.5144 C   0  0  0  0  0  0  0  0  0  0  0  0
   -8.1567    6.8621  -11.8263 C   0  0  0  0  0  0  0  0  0  0  0  0
   -8.3630    7.3483  -10.5497 C   0  0  0  0  0  0  0  0  0  0  0  0
   -8.3762    6.4584   -9.4971 C   0  0  0  0  0  0  0  0  0  0  0  0
   -8.1441    5.0816   -9.6994 C   0  0  0  0  0  0  0  0  0  0  0  0
   -8.5076    4.2711   -8.4886 C   0  0  0  0  0  0  0  0  0  0  0  0
   -9.2489    3.3820   -8.6122 O   0  0  0  0  0  0  0  0  0  0  0  0
   -7.8639    4.8682   -7.2174 N   0  0  0  0  0  0  0  0  0  0  0  0
   -8.0741    4.5548   -5.8264 C   0  0  1  0  0  0  0  0  0  0  0  0
   -9.1688    3.5236   -5.5979 C   0  0  0  0  0  0  0  0  0  0  0  0
   -9.6395    3.6063   -4.1589 C   0  0  0  0  0  0  0  0  0  0  0  0
   -8.5084    3.6090   -3.1575 C   0  0  0  0  0  0  0  0  0  0  0  0
   -8.6945    3.4132   -1.9569 O   0  0  0  0  0  0  0  0  0  0  0  0
   -7.2533    3.9233   -3.6210 N   0  0  0  0  0  0  0  0  0  0  0  0
   -6.8824    4.2225   -4.9194 C   0  0  0  0  0  0  0  0  0  0  0  0
   -5.6898    4.2972   -5.2141 O   0  0  0  0  0  0  0  0  0  0  0  0
  1  2  1  0
  2  3  2  0
  3  4  1  0
  4  5  1  0
  5  6  2  0
  5  7  1  0
  7  8  2  0
  8  9  1  0
  9 10  1  0
  9 11  2  0
 11 12  1  0
 12 13  1  0
 13 14  1  0
 14 15  2  0
 14 16  1  0
 16 17  1  0
 17 18  1  0
 18 19  2  0
 19 20  1  0
 20 21  2  0
 21 22  1  0
 22 23  2  0
 12 24  2  0
  3 25  1  0
 25 26  2  0
 26 27  1  0
 27 28  2  0
 28 29  1  0
 29 30  2  0
 29 31  1  0
 32 31  1  6
 32 33  1  0
 33 34  1  0
 34 35  1  0
 35 36  2  0
 35 37  1  0
 37 38  1  0
 38 39  2  0
 28  2  1  0
 38 32  1  0
 24  7  1  0
 23 18  1  0
M  END
>  <name>  (67) 
P103460

>  <alias>  (67) 
None

>  <smina_score_min>  (67) 
-8.585

>  <exports>  (67) 
['/opt/xchem-fragalysis-2/maxwin/BulkDock/OUTPUTS/openbind_xx01zvns2b_c2_elabs_1LOUTNY.sdf', '/opt/xchem-fragalysis-2/maxwin/BulkDock/OUTPUTS/openbind_xx01zvns2b_c2_elabs_1LSYIIV.sdf']

>  <tags>  (67) 
syndirella_placed,openbind_xx01zvns2b_c2_elabs,openbind_xx01zvns2b_c2_elabs_scored_6.2plus,syndirella_product,openbind_xx01zvns2b_c2_elabs_scored,openbind_xx01zvns2b_c2_elabs_scored_top80percent,BulkDock Fragalysis export

>  <subsites>  (67) 
1 - Z4590/B/203/1

>  <smiles>  (67) 
Cc1c(NC(=O)c2cc(Cl)cc(NC(=O)OCc3ccccc3)c2)cccc1C(=O)N[C@H]1CCC(=O)NC1=O

>  <HIPPO Pose ID>  (67) 
103460

>  <energy_score>  (67) 
-24.590806

>  <inchikey>  (67) 
CONSOCYHSASDRY-QHCPKHFHSA-N

>  <gnina_score_min>  (67) 
6.349

>  <gnina_score>  (67) 
6.161

>  <ref_mols>  (67) 
Z2992a

>  <HIPPO Compound ID>  (67) 
163185

>  <distance_score>  (67) 
1.066525

>  <rmsd(smina/fragmenstein)>  (67) 
1.253

>  <ref_pdb>  (67) 
Z2992a

>  <inspiration_score>  (67) 
None

$$$$
P103461
     RDKit          3D

 39 43  0  0  0  0  0  0  0  0999 V2000
   -7.9192    1.6181   -8.6636 C   0  0  0  0  0  0  0  0  0  0  0  0
   -6.8721    2.2832   -9.5601 C   0  0  2  0  0  0  0  0  0  0  0  0
   -6.0576    1.4988  -10.5503 C   0  0  0  0  0  0  0  0  0  0  0  0
   -4.7105    0.8901  -10.2134 C   0  0  0  0  0  0  0  0  0  0  0  0
   -5.9011    0.0193  -10.4393 C   0  0  0  0  0  0  0  0  0  0  0  0
   -6.0031    3.0888   -8.7387 N   0  0  0  0  0  0  0  0  0  0  0  0
   -6.5865    4.3180   -8.5363 C   0  0  0  0  0  0  0  0  0  0  0  0
   -6.2180    5.0758   -7.6503 O   0  0  0  0  0  0  0  0  0  0  0  0
   -7.5583    4.4728   -9.4922 N   0  0  0  0  0  0  0  0  0  0  0  0
   -8.1702    5.6722   -9.7961 C   0  0  0  0  0  0  0  0  0  0  0  0
   -8.4971    6.5742   -8.7970 C   0  0  0  0  0  0  0  0  0  0  0  0
   -8.9970    7.8157   -9.1478 C   0  0  0  0  0  0  0  0  0  0  0  0
   -9.1321    8.1588  -10.4937 C   0  0  0  0  0  0  0  0  0  0  0  0
   -8.8030    7.2558  -11.5115 C   0  0  0  0  0  0  0  0  0  0  0  0
   -8.9066    7.6663  -12.9426 C   0  0  0  0  0  0  0  0  0  0  0  0
   -8.6304    6.6693  -13.9539 N   0  0  0  0  0  0  0  0  0  0  0  0
   -7.2992    5.9982  -14.3656 C   0  0  0  0  0  0  0  0  0  0  0  0
   -6.2327    6.0880  -13.9020 O   0  0  0  0  0  0  0  0  0  0  0  0
   -7.4453    5.1860  -15.6341 C   0  0  0  0  0  0  0  0  0  0  0  0
   -8.6618    4.6713  -16.0895 C   0  0  0  0  0  0  0  0  0  0  0  0
   -8.7949    4.3210  -17.4344 C   0  0  0  0  0  0  0  0  0  0  0  0
  -10.3450    3.9553  -18.0770 Cl  0  0  0  0  0  0  0  0  0  0  0  0
   -7.7133    4.3869  -18.3067 C   0  0  0  0  0  0  0  0  0  0  0  0
   -6.4673    4.7792  -17.8289 C   0  0  0  0  0  0  0  0  0  0  0  0
   -5.4027    4.7980  -18.7246 N   0  0  0  0  0  0  0  0  0  0  0  0
   -3.9476    5.2197  -18.5288 C   0  0  0  0  0  0  0  0  0  0  0  0
   -3.3806    5.5479  -17.5691 O   0  0  0  0  0  0  0  0  0  0  0  0
   -3.3960    5.1458  -19.7700 O   0  0  0  0  0  0  0  0  0  0  0  0
   -2.0199    5.5360  -19.8686 C   0  0  0  0  0  0  0  0  0  0  0  0
   -1.9466    7.0039  -20.2116 C   0  0  0  0  0  0  0  0  0  0  0  0
   -1.8768    7.9691  -19.1969 C   0  0  0  0  0  0  0  0  0  0  0  0
   -1.8433    9.3282  -19.5115 C   0  0  0  0  0  0  0  0  0  0  0  0
   -1.8817    9.7362  -20.8433 C   0  0  0  0  0  0  0  0  0  0  0  0
   -1.9600    8.7859  -21.8606 C   0  0  0  0  0  0  0  0  0  0  0  0
   -1.9981    7.4261  -21.5469 C   0  0  0  0  0  0  0  0  0  0  0  0
   -6.3329    5.1765  -16.4983 C   0  0  0  0  0  0  0  0  0  0  0  0
   -8.3451    6.0082  -11.1400 C   0  0  0  0  0  0  0  0  0  0  0  0
   -7.6699    3.3498  -10.2665 C   0  0  0  0  0  0  0  0  0  0  0  0
   -8.3487    3.1645  -11.2709 O   0  0  0  0  0  0  0  0  0  0  0  0
  2  1  1  1
  2  3  1  0
  3  4  1  0
  4  5  1  0
  2  6  1  0
  6  7  1  0
  7  8  2  0
  7  9  1  0
  9 10  1  0
 10 11  2  0
 11 12  1  0
 12 13  2  0
 13 14  1  0
 14 15  1  0
 15 16  1  0
 16 17  1  0
 17 18  2  0
 17 19  1  0
 19 20  2  0
 20 21  1  0
 21 22  1  0
 21 23  2  0
 23 24  1  0
 24 25  1  0
 25 26  1  0
 26 27  2  0
 26 28  1  0
 28 29  1  0
 29 30  1  0
 30 31  2  0
 31 32  1  0
 32 33  2  0
 33 34  1  0
 34 35  2  0
 24 36  2  0
 14 37  2  0
  9 38  1  0
 38 39  2  0
 38  2  1  0
  5  3  1  0
 37 10  1  0
 36 19  1  0
 35 30  1  0
M  END
>  <name>  (68) 
P103461

>  <alias>  (68) 
None

>  <smina_score_min>  (68) 
-6.416

>  <exports>  (68) 
['/opt/xchem-fragalysis-2/maxwin/BulkDock/OUTPUTS/openbind_xx01zvns2b_c2_elabs_1LOUTNY.sdf', '/opt/xchem-fragalysis-2/maxwin/BulkDock/OUTPUTS/openbind_xx01zvns2b_c2_elabs_1LSYIIV.sdf']

>  <tags>  (68) 
syndirella_placed,openbind_xx01zvns2b_c2_elabs,openbind_xx01zvns2b_c2_elabs_scored_6.2plus,syndirella_product,openbind_xx01zvns2b_c2_elabs_scored,openbind_xx01zvns2b_c2_elabs_scored_top80percent,BulkDock Fragalysis export

>  <subsites>  (68) 
1 - Z4590/B/203/1

>  <smiles>  (68) 
C[C@]1(C2CC2)NC(=O)N(c2cccc(CNC(=O)c3cc(Cl)cc(NC(=O)OCc4ccccc4)c3)c2)C1=O

>  <HIPPO Pose ID>  (68) 
103461

>  <energy_score>  (68) 
-30.706702

>  <inchikey>  (68) 
LBVQCQBXWODNMV-GDLZYMKVSA-N

>  <gnina_score_min>  (68) 
6.415

>  <gnina_score>  (68) 
6.363

>  <ref_mols>  (68) 
Z2992a

>  <HIPPO Compound ID>  (68) 
163187

>  <distance_score>  (68) 
1.715102

>  <rmsd(smina/fragmenstein)>  (68) 
1.104

>  <ref_pdb>  (68) 
Z2992a

>  <inspiration_score>  (68) 
None

$$$$
P103463
     RDKit          3D

 39 42  0  0  0  0  0  0  0  0999 V2000
   -9.3539   11.9379  -14.2896 C   0  0  0  0  0  0  0  0  0  0  0  0
   -8.0856   12.1157  -13.4487 C   0  0  0  0  0  0  0  0  0  0  0  0
   -6.8121   11.9867  -14.2923 C   0  0  0  0  0  0  0  0  0  0  0  0
   -8.1099   13.5152  -12.8147 C   0  0  0  0  0  0  0  0  0  0  0  0
   -8.0881   11.2016  -12.3228 O   0  0  0  0  0  0  0  0  0  0  0  0
   -7.9978    9.8555  -12.5101 C   0  0  0  0  0  0  0  0  0  0  0  0
   -7.8829    9.3333  -13.5398 O   0  0  0  0  0  0  0  0  0  0  0  0
   -8.0902    9.2660  -11.1069 N   0  0  0  0  0  0  0  0  0  0  0  0
   -8.1543    7.9402  -10.6838 C   0  0  0  0  0  0  0  0  0  0  0  0
   -8.4607    7.7236   -9.3410 C   0  0  0  0  0  0  0  0  0  0  0  0
   -8.5403    6.4273   -8.8496 C   0  0  0  0  0  0  0  0  0  0  0  0
   -8.3122    5.3437   -9.6914 C   0  0  0  0  0  0  0  0  0  0  0  0
   -7.9766    5.5296  -11.0412 C   0  0  0  0  0  0  0  0  0  0  0  0
   -7.9037    6.8504  -11.5284 C   0  0  0  0  0  0  0  0  0  0  0  0
   -7.5848    4.3083  -11.8439 C   0  0  2  0  0  0  0  0  0  0  0  0
   -7.7334    4.3952  -13.2822 N   0  0  0  0  0  0  0  0  0  0  0  0
   -6.8759    5.1208  -14.3336 C   0  0  0  0  0  0  0  0  0  0  0  0
   -5.9581    5.8271  -14.2029 O   0  0  0  0  0  0  0  0  0  0  0  0
   -7.2781    4.8053  -15.7463 C   0  0  0  0  0  0  0  0  0  0  0  0
   -8.5901    4.5395  -16.1467 C   0  0  0  0  0  0  0  0  0  0  0  0
   -8.8636    4.3556  -17.5057 C   0  0  0  0  0  0  0  0  0  0  0  0
  -10.4767    4.1032  -18.0429 Cl  0  0  0  0  0  0  0  0  0  0  0  0
   -7.8574    4.4453  -18.4652 C   0  0  0  0  0  0  0  0  0  0  0  0
   -6.5508    4.7038  -18.0709 C   0  0  0  0  0  0  0  0  0  0  0  0
   -5.5633    4.7973  -19.0459 N   0  0  0  0  0  0  0  0  0  0  0  0
   -4.0609    5.0533  -18.9177 C   0  0  0  0  0  0  0  0  0  0  0  0
   -3.3908    5.1516  -17.9730 O   0  0  0  0  0  0  0  0  0  0  0  0
   -3.6080    5.1651  -20.1961 O   0  0  0  0  0  0  0  0  0  0  0  0
   -2.2109    5.4649  -20.3326 C   0  0  0  0  0  0  0  0  0  0  0  0
   -2.0433    6.9594  -20.4688 C   0  0  0  0  0  0  0  0  0  0  0  0
   -2.0489    7.5612  -21.7339 C   0  0  0  0  0  0  0  0  0  0  0  0
   -1.9272    8.9463  -21.8601 C   0  0  0  0  0  0  0  0  0  0  0  0
   -1.8101    9.7444  -20.7232 C   0  0  0  0  0  0  0  0  0  0  0  0
   -1.8147    9.1586  -19.4590 C   0  0  0  0  0  0  0  0  0  0  0  0
   -1.9304    7.7734  -19.3320 C   0  0  0  0  0  0  0  0  0  0  0  0
   -6.2633    4.8725  -16.7183 C   0  0  0  0  0  0  0  0  0  0  0  0
   -8.3118    3.0859  -11.3039 C   0  0  0  0  0  0  0  0  0  0  0  0
   -8.0525    2.9843   -9.8140 C   0  0  0  0  0  0  0  0  0  0  0  0
   -8.4771    4.1318   -9.0832 O   0  0  0  0  0  0  0  0  0  0  0  0
  1  2  1  0
  2  3  1  0
  2  4  1  0
  2  5  1  0
  5  6  1  0
  6  7  2  0
  6  8  1  0
  8  9  1  0
  9 10  2  0
 10 11  1  0
 11 12  2  0
 12 13  1  0
 13 14  2  0
 13 15  1  0
 15 16  1  6
 16 17  1  0
 17 18  2  0
 17 19  1  0
 19 20  2  0
 20 21  1  0
 21 22  1  0
 21 23  2  0
 23 24  1  0
 24 25  1  0
 25 26  1  0
 26 27  2  0
 26 28  1  0
 28 29  1  0
 29 30  1  0
 30 31  2  0
 31 32  1  0
 32 33  2  0
 33 34  1  0
 34 35  2  0
 24 36  2  0
 15 37  1  0
 37 38  1  0
 38 39  1  0
 14  9  1  0
 36 19  1  0
 39 12  1  0
 35 30  1  0
M  END
>  <name>  (69) 
P103463

>  <alias>  (69) 
None

>  <smina_score_min>  (69) 
-7.359

>  <exports>  (69) 
['/opt/xchem-fragalysis-2/maxwin/BulkDock/OUTPUTS/openbind_xx01zvns2b_c2_elabs_1LOUTNY.sdf', '/opt/xchem-fragalysis-2/maxwin/BulkDock/OUTPUTS/openbind_xx01zvns2b_c2_elabs_1LSYIIV.sdf']

>  <tags>  (69) 
syndirella_placed,openbind_xx01zvns2b_c2_elabs,openbind_xx01zvns2b_c2_elabs_scored_6.2plus,syndirella_product,openbind_xx01zvns2b_c2_elabs_scored,openbind_xx01zvns2b_c2_elabs_scored_top80percent,BulkDock Fragalysis export

>  <subsites>  (69) 
1 - Z4590/B/203/1

>  <smiles>  (69) 
CC(C)(C)OC(=O)Nc1ccc2c(c1)[C@H](NC(=O)c1cc(Cl)cc(NC(=O)OCc3ccccc3)c1)CCO2

>  <HIPPO Pose ID>  (69) 
103463

>  <energy_score>  (69) 
-54.987983

>  <inchikey>  (69) 
YRIXWHAKENWHFV-XMMPIXPASA-N

>  <gnina_score_min>  (69) 
6.438

>  <gnina_score>  (69) 
6.44

>  <ref_mols>  (69) 
Z2992a

>  <HIPPO Compound ID>  (69) 
163189

>  <distance_score>  (69) 
0.688424

>  <rmsd(smina/fragmenstein)>  (69) 
1.679

>  <ref_pdb>  (69) 
Z2992a

>  <inspiration_score>  (69) 
None

$$$$
P103465
     RDKit          3D

 39 42  0  0  0  0  0  0  0  0999 V2000
  -10.2467    2.1406   -6.7085 C   0  0  0  0  0  0  0  0  0  0  0  0
   -9.7693    3.1805   -5.7090 C   0  0  0  0  0  0  0  0  0  0  0  0
  -10.3304    2.7987   -4.3348 C   0  0  0  0  0  0  0  0  0  0  0  0
  -10.2893    4.5849   -5.9609 C   0  0  0  0  0  0  0  0  0  0  0  0
   -8.3288    3.2054   -5.5771 O   0  0  0  0  0  0  0  0  0  0  0  0
   -7.4146    3.6059   -6.4947 C   0  0  0  0  0  0  0  0  0  0  0  0
   -6.4294    4.2483   -6.1042 O   0  0  0  0  0  0  0  0  0  0  0  0
   -7.5583    3.1569   -7.9844 C   0  0  0  0  0  0  0  0  0  0  0  0
   -8.1456    4.0741   -8.9387 N   0  0  0  0  0  0  0  0  0  0  0  0
   -8.0404    3.8955  -10.4140 C   0  0  0  0  0  0  0  0  0  0  0  0
   -8.2860    5.2843  -10.9415 C   0  0  0  0  0  0  0  0  0  0  0  0
   -8.4310    5.8867  -12.1784 C   0  0  0  0  0  0  0  0  0  0  0  0
   -8.2969    5.3553  -13.4549 N   0  0  0  0  0  0  0  0  0  0  0  0
   -7.5042    4.1338  -13.9510 C   0  0  0  0  0  0  0  0  0  0  0  0
   -6.9009    3.3350  -13.3586 O   0  0  0  0  0  0  0  0  0  0  0  0
   -7.5653    4.1767  -15.4488 C   0  0  0  0  0  0  0  0  0  0  0  0
   -8.8189    4.0830  -16.0633 C   0  0  0  0  0  0  0  0  0  0  0  0
   -8.9262    4.2255  -17.4396 C   0  0  0  0  0  0  0  0  0  0  0  0
  -10.4643    4.1485  -18.1931 Cl  0  0  0  0  0  0  0  0  0  0  0  0
   -7.7985    4.4762  -18.2095 C   0  0  0  0  0  0  0  0  0  0  0  0
   -6.5465    4.5946  -17.5987 C   0  0  0  0  0  0  0  0  0  0  0  0
   -5.4685    4.8400  -18.4425 N   0  0  0  0  0  0  0  0  0  0  0  0
   -3.9931    5.0680  -18.1266 C   0  0  0  0  0  0  0  0  0  0  0  0
   -3.4473    5.1646  -17.1058 O   0  0  0  0  0  0  0  0  0  0  0  0
   -3.4079    5.1772  -19.3466 O   0  0  0  0  0  0  0  0  0  0  0  0
   -2.0183    5.5224  -19.3794 C   0  0  0  0  0  0  0  0  0  0  0  0
   -1.9210    6.9530  -19.8480 C   0  0  0  0  0  0  0  0  0  0  0  0
   -1.8397    7.2548  -21.2147 C   0  0  0  0  0  0  0  0  0  0  0  0
   -1.7879    8.5824  -21.6441 C   0  0  0  0  0  0  0  0  0  0  0  0
   -1.8256    9.6194  -20.7131 C   0  0  0  0  0  0  0  0  0  0  0  0
   -1.9193    9.3305  -19.3526 C   0  0  0  0  0  0  0  0  0  0  0  0
   -1.9712    8.0039  -18.9217 C   0  0  0  0  0  0  0  0  0  0  0  0
   -6.4233    4.4531  -16.2118 C   0  0  0  0  0  0  0  0  0  0  0  0
   -8.7460    7.2675  -12.2223 C   0  0  0  0  0  0  0  0  0  0  0  0
   -8.8636    8.0588  -11.0790 C   0  0  0  0  0  0  0  0  0  0  0  0
   -8.6846    7.4806   -9.8489 C   0  0  0  0  0  0  0  0  0  0  0  0
   -8.4105    6.1278   -9.8332 C   0  0  0  0  0  0  0  0  0  0  0  0
   -8.1961    5.4018   -8.6146 C   0  0  0  0  0  0  0  0  0  0  0  0
   -8.0849    5.9714   -7.5469 O   0  0  0  0  0  0  0  0  0  0  0  0
  1  2  1  0
  2  3  1  0
  2  4  1  0
  2  5  1  0
  5  6  1  0
  6  7  2  0
  6  8  1  0
  8  9  1  0
  9 10  1  0
 10 11  1  0
 11 12  2  0
 12 13  1  0
 13 14  1  0
 14 15  2  0
 14 16  1  0
 16 17  2  0
 17 18  1  0
 18 19  1  0
 18 20  2  0
 20 21  1  0
 21 22  1  0
 22 23  1  0
 23 24  2  0
 23 25  1  0
 25 26  1  0
 26 27  1  0
 27 28  2  0
 28 29  1  0
 29 30  2  0
 30 31  1  0
 31 32  2  0
 21 33  2  0
 12 34  1  0
 34 35  2  0
 35 36  1  0
 36 37  2  0
 37 38  1  0
 38 39  2  0
 38  9  1  0
 37 11  1  0
 33 16  1  0
 32 27  1  0
M  END
>  <name>  (70) 
P103465

>  <alias>  (70) 
None

>  <smina_score_min>  (70) 
-7.899

>  <exports>  (70) 
['/opt/xchem-fragalysis-2/maxwin/BulkDock/OUTPUTS/openbind_xx01zvns2b_c2_elabs_1LOUTNY.sdf', '/opt/xchem-fragalysis-2/maxwin/BulkDock/OUTPUTS/openbind_xx01zvns2b_c2_elabs_1LSYIIV.sdf']

>  <tags>  (70) 
syndirella_placed,openbind_xx01zvns2b_c2_elabs,openbind_xx01zvns2b_c2_elabs_scored_6.2plus,syndirella_product,openbind_xx01zvns2b_c2_elabs_scored,openbind_xx01zvns2b_c2_elabs_scored_top80percent,BulkDock Fragalysis export

>  <subsites>  (70) 
1 - Z4590/B/203/1

>  <smiles>  (70) 
CC(C)(C)OC(=O)CN1Cc2c(NC(=O)c3cc(Cl)cc(NC(=O)OCc4ccccc4)c3)cccc2C1=O

>  <HIPPO Pose ID>  (70) 
103465

>  <energy_score>  (70) 
-0.27524

>  <inchikey>  (70) 
CHQRMBYFQZYKJF-UHFFFAOYSA-N

>  <gnina_score_min>  (70) 
6.209

>  <gnina_score>  (70) 
6.231

>  <ref_mols>  (70) 
Z2992a

>  <HIPPO Compound ID>  (70) 
163193

>  <distance_score>  (70) 
1.324171

>  <rmsd(smina/fragmenstein)>  (70) 
1.818

>  <ref_pdb>  (70) 
Z2992a

>  <inspiration_score>  (70) 
None

$$$$
P103469
     RDKit          3D

 39 42  0  0  0  0  0  0  0  0999 V2000
   -5.1983    3.4928   -8.7286 C   0  0  0  0  0  0  0  0  0  0  0  0
   -6.2543    2.7190   -9.3511 N   0  0  0  0  0  0  0  0  0  0  0  0
   -5.9360    1.6042  -10.2337 C   0  0  0  0  0  0  0  0  0  0  0  0
   -4.6504    1.7622  -11.0121 C   0  0  0  0  0  0  0  0  0  0  0  0
   -4.5471    2.6925  -12.0562 C   0  0  0  0  0  0  0  0  0  0  0  0
   -3.3439    2.8529  -12.7459 C   0  0  0  0  0  0  0  0  0  0  0  0
   -2.2329    2.0851  -12.3997 C   0  0  0  0  0  0  0  0  0  0  0  0
   -2.3259    1.1477  -11.3752 C   0  0  0  0  0  0  0  0  0  0  0  0
   -3.5274    0.9876  -10.6855 C   0  0  0  0  0  0  0  0  0  0  0  0
   -7.5686    3.0695   -9.0828 C   0  0  0  0  0  0  0  0  0  0  0  0
   -8.2718    2.6495   -8.1774 O   0  0  0  0  0  0  0  0  0  0  0  0
   -8.0799    4.1357   -9.9550 C   0  0  0  0  0  0  0  0  0  0  0  0
   -8.2479    5.3962   -9.3801 C   0  0  0  0  0  0  0  0  0  0  0  0
   -8.4287    6.4964  -10.2079 C   0  0  0  0  0  0  0  0  0  0  0  0
   -8.3938    6.3363  -11.5980 C   0  0  0  0  0  0  0  0  0  0  0  0
   -8.7405    7.7451  -12.5362 Cl  0  0  0  0  0  0  0  0  0  0  0  0
   -8.2260    5.0585  -12.1608 C   0  0  0  0  0  0  0  0  0  0  0  0
   -8.0034    4.7984  -13.5096 N   0  0  0  0  0  0  0  0  0  0  0  0
   -7.3071    5.6473  -14.5915 C   0  0  0  0  0  0  0  0  0  0  0  0
   -6.7426    6.6642  -14.5074 O   0  0  0  0  0  0  0  0  0  0  0  0
   -7.4505    5.0383  -15.9332 C   0  0  0  0  0  0  0  0  0  0  0  0
   -8.7040    4.6153  -16.3677 C   0  0  0  0  0  0  0  0  0  0  0  0
   -8.8799    4.3119  -17.7107 C   0  0  0  0  0  0  0  0  0  0  0  0
  -10.4631    3.9964  -18.2756 Cl  0  0  0  0  0  0  0  0  0  0  0  0
   -7.8189    4.3861  -18.6096 C   0  0  0  0  0  0  0  0  0  0  0  0
   -6.5584    4.7763  -18.1600 C   0  0  0  0  0  0  0  0  0  0  0  0
   -5.5245    4.9061  -19.0795 N   0  0  0  0  0  0  0  0  0  0  0  0
   -4.0242    5.1102  -18.8659 C   0  0  0  0  0  0  0  0  0  0  0  0
   -3.4179    5.2797  -17.8884 O   0  0  0  0  0  0  0  0  0  0  0  0
   -3.4869    5.0969  -20.1153 O   0  0  0  0  0  0  0  0  0  0  0  0
   -2.0935    5.4288  -20.1961 C   0  0  0  0  0  0  0  0  0  0  0  0
   -1.9597    6.9201  -20.3975 C   0  0  0  0  0  0  0  0  0  0  0  0
   -1.8606    7.7856  -19.2982 C   0  0  0  0  0  0  0  0  0  0  0  0
   -1.7853    9.1668  -19.4859 C   0  0  0  0  0  0  0  0  0  0  0  0
   -1.8081    9.6970  -20.7743 C   0  0  0  0  0  0  0  0  0  0  0  0
   -1.9126    8.8475  -21.8745 C   0  0  0  0  0  0  0  0  0  0  0  0
   -1.9938    7.4663  -21.6875 C   0  0  0  0  0  0  0  0  0  0  0  0
   -6.3716    5.1021  -16.8191 C   0  0  0  0  0  0  0  0  0  0  0  0
   -8.1567    3.9452  -11.3302 C   0  0  0  0  0  0  0  0  0  0  0  0
  1  2  1  0
  2  3  1  0
  3  4  1  0
  4  5  2  0
  5  6  1  0
  6  7  2  0
  7  8  1  0
  8  9  2  0
  2 10  1  0
 10 11  2  0
 10 12  1  0
 12 13  2  0
 13 14  1  0
 14 15  2  0
 15 16  1  0
 15 17  1  0
 17 18  1  0
 18 19  1  0
 19 20  2  0
 19 21  1  0
 21 22  2  0
 22 23  1  0
 23 24  1  0
 23 25  2  0
 25 26  1  0
 26 27  1  0
 27 28  1  0
 28 29  2  0
 28 30  1  0
 30 31  1  0
 31 32  1  0
 32 33  2  0
 33 34  1  0
 34 35  2  0
 35 36  1  0
 36 37  2  0
 26 38  2  0
 17 39  2  0
  9  4  1  0
 39 12  1  0
 38 21  1  0
 37 32  1  0
M  END
>  <name>  (71) 
P103469

>  <alias>  (71) 
None

>  <smina_score_min>  (71) 
-7.907

>  <exports>  (71) 
['/opt/xchem-fragalysis-2/maxwin/BulkDock/OUTPUTS/openbind_xx01zvns2b_c2_elabs_1LOUTNY.sdf', '/opt/xchem-fragalysis-2/maxwin/BulkDock/OUTPUTS/openbind_xx01zvns2b_c2_elabs_1LSYIIV.sdf']

>  <tags>  (71) 
syndirella_placed,openbind_xx01zvns2b_c2_elabs,openbind_xx01zvns2b_c2_elabs_scored_6.2plus,syndirella_product,openbind_xx01zvns2b_c2_elabs_scored,openbind_xx01zvns2b_c2_elabs_scored_top80percent,BulkDock Fragalysis export

>  <subsites>  (71) 
1 - Z4590/B/203/1

>  <smiles>  (71) 
CN(Cc1ccccc1)C(=O)c1ccc(Cl)c(NC(=O)c2cc(Cl)cc(NC(=O)OCc3ccccc3)c2)c1

>  <HIPPO Pose ID>  (71) 
103469

>  <energy_score>  (71) 
-0.748618

>  <inchikey>  (71) 
ZNGXJCWSCJPJJY-UHFFFAOYSA-N

>  <gnina_score_min>  (71) 
6.856

>  <gnina_score>  (71) 
6.749

>  <ref_mols>  (71) 
Z2992a

>  <HIPPO Compound ID>  (71) 
163200

>  <distance_score>  (71) 
0.750917

>  <rmsd(smina/fragmenstein)>  (71) 
1.226

>  <ref_pdb>  (71) 
Z2992a

>  <inspiration_score>  (71) 
None

$$$$
P103470
     RDKit          3D

 39 42  0  0  0  0  0  0  0  0999 V2000
   -3.3510    5.1556  -17.9896 O   0  0  0  0  0  0  0  0  0  0  0  0
   -4.0019    5.0337  -18.9438 C   0  0  0  0  0  0  0  0  0  0  0  0
   -5.4996    4.7738  -19.0950 N   0  0  0  0  0  0  0  0  0  0  0  0
   -6.5057    4.7036  -18.1381 C   0  0  0  0  0  0  0  0  0  0  0  0
   -7.7849    4.3402  -18.5457 C   0  0  0  0  0  0  0  0  0  0  0  0
   -8.8217    4.3236  -17.6194 C   0  0  0  0  0  0  0  0  0  0  0  0
  -10.4203    4.0113  -18.1594 Cl  0  0  0  0  0  0  0  0  0  0  0  0
   -8.6090    4.6911  -16.2906 C   0  0  0  0  0  0  0  0  0  0  0  0
   -7.3341    5.0988  -15.8842 C   0  0  0  0  0  0  0  0  0  0  0  0
   -7.1304    5.8935  -14.6235 C   0  0  0  0  0  0  0  0  0  0  0  0
   -6.3035    6.7126  -14.6580 O   0  0  0  0  0  0  0  0  0  0  0  0
   -8.1390    5.5434  -13.5197 N   0  0  0  0  0  0  0  0  0  0  0  0
   -8.4074    6.1841  -12.2673 C   0  0  0  0  0  0  0  0  0  0  0  0
   -8.3219    5.3528  -11.0249 C   0  0  0  0  0  0  0  0  0  0  0  0
   -8.5186    6.0162   -9.7995 C   0  0  0  0  0  0  0  0  0  0  0  0
   -8.3936    5.3433   -8.5867 C   0  0  0  0  0  0  0  0  0  0  0  0
   -8.0264    4.0054   -8.5785 C   0  0  0  0  0  0  0  0  0  0  0  0
   -7.8031    3.3438   -9.7791 C   0  0  0  0  0  0  0  0  0  0  0  0
   -7.1555    2.0896   -9.7324 N   0  0  0  0  0  0  0  0  0  0  0  0
   -5.4678    2.0552   -9.6767 S   0  0  0  0  0  0  0  0  0  0  0  0
   -5.0712    0.6610   -9.7451 O   0  0  0  0  0  0  0  0  0  0  0  0
   -4.9578    2.9172   -8.6288 O   0  0  0  0  0  0  0  0  0  0  0  0
   -4.9074    2.8491  -11.1774 C   0  0  0  0  0  0  0  0  0  0  0  0
   -4.7987    4.2480  -11.2020 C   0  0  0  0  0  0  0  0  0  0  0  0
   -4.2302    4.8861  -12.3029 C   0  0  0  0  0  0  0  0  0  0  0  0
   -3.7262    4.1236  -13.3523 C   0  0  0  0  0  0  0  0  0  0  0  0
   -2.9460    4.9097  -14.6640 Cl  0  0  0  0  0  0  0  0  0  0  0  0
   -3.8072    2.7306  -13.3203 C   0  0  0  0  0  0  0  0  0  0  0  0
   -4.3991    2.0888  -12.2290 C   0  0  0  0  0  0  0  0  0  0  0  0
   -8.0046    3.9897  -11.0034 C   0  0  0  0  0  0  0  0  0  0  0  0
   -6.2779    5.0644  -16.8094 C   0  0  0  0  0  0  0  0  0  0  0  0
   -3.5217    5.0980  -20.2153 O   0  0  0  0  0  0  0  0  0  0  0  0
   -2.1300    5.4303  -20.3310 C   0  0  0  0  0  0  0  0  0  0  0  0
   -1.9937    6.9286  -20.4681 C   0  0  0  0  0  0  0  0  0  0  0  0
   -2.0312    7.5306  -21.7327 C   0  0  0  0  0  0  0  0  0  0  0  0
   -1.9395    8.9180  -21.8601 C   0  0  0  0  0  0  0  0  0  0  0  0
   -1.8214    9.7182  -20.7247 C   0  0  0  0  0  0  0  0  0  0  0  0
   -1.7956    9.1322  -19.4609 C   0  0  0  0  0  0  0  0  0  0  0  0
   -1.8809    7.7448  -19.3328 C   0  0  0  0  0  0  0  0  0  0  0  0
  1  2  2  0
  2  3  1  0
  3  4  1  0
  4  5  2  0
  5  6  1  0
  6  7  1  0
  6  8  2  0
  8  9  1  0
  9 10  1  0
 10 11  2  0
 10 12  1  0
 12 13  1  0
 13 14  1  0
 14 15  2  0
 15 16  1  0
 16 17  2  0
 17 18  1  0
 18 19  1  0
 19 20  1  0
 20 21  2  0
 20 22  2  0
 20 23  1  0
 23 24  2  0
 24 25  1  0
 25 26  2  0
 26 27  1  0
 26 28  1  0
 28 29  2  0
 18 30  2  0
  9 31  2  0
  2 32  1  0
 32 33  1  0
 33 34  1  0
 34 35  2  0
 35 36  1  0
 36 37  2  0
 37 38  1  0
 38 39  2  0
 31  4  1  0
 39 34  1  0
 30 14  1  0
 29 23  1  0
M  END
>  <name>  (72) 
P103470

>  <alias>  (72) 
None

>  <smina_score_min>  (72) 
-7.54

>  <exports>  (72) 
['/opt/xchem-fragalysis-2/maxwin/BulkDock/OUTPUTS/openbind_xx01zvns2b_c2_elabs_1LOUTNY.sdf', '/opt/xchem-fragalysis-2/maxwin/BulkDock/OUTPUTS/openbind_xx01zvns2b_c2_elabs_1LSYIIV.sdf']

>  <tags>  (72) 
syndirella_placed,openbind_xx01zvns2b_c2_elabs,openbind_xx01zvns2b_c2_elabs_scored_6.2plus,syndirella_product,openbind_xx01zvns2b_c2_elabs_scored,openbind_xx01zvns2b_c2_elabs_scored_top80percent,BulkDock Fragalysis export

>  <subsites>  (72) 
1 - Z4590/B/203/1

>  <smiles>  (72) 
O=C(Nc1cc(Cl)cc(C(=O)NCc2cccc(NS(=O)(=O)c3ccc(Cl)cc3)c2)c1)OCc1ccccc1

>  <HIPPO Pose ID>  (72) 
103470

>  <energy_score>  (72) 
-25.603591

>  <inchikey>  (72) 
GJQUQYZAVFECPD-UHFFFAOYSA-N

>  <gnina_score_min>  (72) 
6.598

>  <gnina_score>  (72) 
6.737

>  <ref_mols>  (72) 
Z2992a

>  <HIPPO Compound ID>  (72) 
163202

>  <distance_score>  (72) 
1.071363

>  <rmsd(smina/fragmenstein)>  (72) 
0.821

>  <ref_pdb>  (72) 
Z2992a

>  <inspiration_score>  (72) 
None

$$$$
P103473
     RDKit          3D

 39 42  0  0  0  0  0  0  0  0999 V2000
   -3.4694    5.2120  -17.8914 O   0  0  0  0  0  0  0  0  0  0  0  0
   -4.0973    5.0639  -18.8586 C   0  0  0  0  0  0  0  0  0  0  0  0
   -5.5849    4.7582  -19.0384 N   0  0  0  0  0  0  0  0  0  0  0  0
   -6.6083    4.6648  -18.1012 C   0  0  0  0  0  0  0  0  0  0  0  0
   -7.8949    4.3668  -18.5447 C   0  0  0  0  0  0  0  0  0  0  0  0
   -8.9419    4.2868  -17.6292 C   0  0  0  0  0  0  0  0  0  0  0  0
  -10.5415    4.0596  -18.1989 Cl  0  0  0  0  0  0  0  0  0  0  0  0
   -8.7275    4.4994  -16.2715 C   0  0  0  0  0  0  0  0  0  0  0  0
   -7.4452    4.8273  -15.8368 C   0  0  0  0  0  0  0  0  0  0  0  0
   -7.2430    5.3764  -14.4751 C   0  0  0  0  0  0  0  0  0  0  0  0
   -6.6651    6.3896  -14.3997 O   0  0  0  0  0  0  0  0  0  0  0  0
   -7.9397    4.5348  -13.3785 N   0  0  0  0  0  0  0  0  0  0  0  0
   -7.9869    4.7096  -11.9991 C   0  0  0  0  0  0  0  0  0  0  0  0
   -7.5426    5.9077  -11.4489 C   0  0  0  0  0  0  0  0  0  0  0  0
   -7.6522    6.1340  -10.0829 C   0  0  0  0  0  0  0  0  0  0  0  0
   -8.2027    5.1615   -9.2432 C   0  0  0  0  0  0  0  0  0  0  0  0
   -8.3355    5.6520   -7.5908 Cl  0  0  0  0  0  0  0  0  0  0  0  0
   -8.6313    3.9301   -9.7709 C   0  0  0  0  0  0  0  0  0  0  0  0
   -9.3105    2.8230   -8.9965 C   0  0  0  0  0  0  0  0  0  0  0  0
  -10.0140    2.1197   -9.5978 O   0  0  0  0  0  0  0  0  0  0  0  0
   -8.9632    2.8410   -7.5064 N   0  0  0  0  0  0  0  0  0  0  0  0
   -9.4783    2.0583   -6.4187 C   0  0  0  0  0  0  0  0  0  0  0  0
   -9.9500    2.9345   -5.2860 C   0  0  0  0  0  0  0  0  0  0  0  0
   -9.0739    3.8321   -4.6533 C   0  0  0  0  0  0  0  0  0  0  0  0
   -9.5132    4.6531   -3.6106 C   0  0  0  0  0  0  0  0  0  0  0  0
  -10.8333    4.5792   -3.1718 C   0  0  0  0  0  0  0  0  0  0  0  0
  -11.7059    3.6721   -3.7674 C   0  0  0  0  0  0  0  0  0  0  0  0
  -11.2572    2.8551   -4.8048 C   0  0  0  0  0  0  0  0  0  0  0  0
  -12.1100    1.9483   -5.3015 F   0  0  0  0  0  0  0  0  0  0  0  0
   -8.5199    3.7246  -11.1678 C   0  0  0  0  0  0  0  0  0  0  0  0
   -6.3818    4.8953  -16.7460 C   0  0  0  0  0  0  0  0  0  0  0  0
   -3.5979    5.1425  -20.1215 O   0  0  0  0  0  0  0  0  0  0  0  0
   -2.2010    5.4565  -20.2219 C   0  0  0  0  0  0  0  0  0  0  0  0
   -2.0450    6.9473  -20.4006 C   0  0  0  0  0  0  0  0  0  0  0  0
   -1.9440    7.7942  -19.2872 C   0  0  0  0  0  0  0  0  0  0  0  0
   -1.8357    9.1758  -19.4538 C   0  0  0  0  0  0  0  0  0  0  0  0
   -1.8282    9.7250  -20.7345 C   0  0  0  0  0  0  0  0  0  0  0  0
   -1.9352    8.8939  -21.8485 C   0  0  0  0  0  0  0  0  0  0  0  0
   -2.0486    7.5123  -21.6828 C   0  0  0  0  0  0  0  0  0  0  0  0
  1  2  2  0
  2  3  1  0
  3  4  1  0
  4  5  2  0
  5  6  1  0
  6  7  1  0
  6  8  2  0
  8  9  1  0
  9 10  1  0
 10 11  2  0
 10 12  1  0
 12 13  1  0
 13 14  2  0
 14 15  1  0
 15 16  2  0
 16 17  1  0
 16 18  1  0
 18 19  1  0
 19 20  2  0
 19 21  1  0
 21 22  1  0
 22 23  1  0
 23 24  2  0
 24 25  1  0
 25 26  2  0
 26 27  1  0
 27 28  2  0
 28 29  1  0
 18 30  2  0
  9 31  2  0
  2 32  1  0
 32 33  1  0
 33 34  1  0
 34 35  2  0
 35 36  1  0
 36 37  2  0
 37 38  1  0
 38 39  2  0
 31  4  1  0
 39 34  1  0
 30 13  1  0
 28 23  1  0
M  END
>  <name>  (73) 
P103473

>  <alias>  (73) 
None

>  <smina_score_min>  (73) 
-8.384

>  <exports>  (73) 
['/opt/xchem-fragalysis-2/maxwin/BulkDock/OUTPUTS/openbind_xx01zvns2b_c2_elabs_1LOUTNY.sdf', '/opt/xchem-fragalysis-2/maxwin/BulkDock/OUTPUTS/openbind_xx01zvns2b_c2_elabs_1LSYIIV.sdf']

>  <tags>  (73) 
syndirella_placed,openbind_xx01zvns2b_c2_elabs,openbind_xx01zvns2b_c2_elabs_scored_6.2plus,syndirella_product,openbind_xx01zvns2b_c2_elabs_scored,openbind_xx01zvns2b_c2_elabs_scored_top80percent,BulkDock Fragalysis export

>  <subsites>  (73) 
1 - Z4590/B/203/1

>  <smiles>  (73) 
O=C(Nc1cc(Cl)cc(C(=O)Nc2ccc(Cl)c(C(=O)NCc3ccccc3F)c2)c1)OCc1ccccc1

>  <HIPPO Pose ID>  (73) 
103473

>  <energy_score>  (73) 
-27.319737

>  <inchikey>  (73) 
QNXKEPCCVVEMHM-UHFFFAOYSA-N

>  <gnina_score_min>  (73) 
6.507

>  <gnina_score>  (73) 
6.448

>  <ref_mols>  (73) 
Z2992a

>  <HIPPO Compound ID>  (73) 
163206

>  <distance_score>  (73) 
0.453785

>  <rmsd(smina/fragmenstein)>  (73) 
1.217

>  <ref_pdb>  (73) 
Z2992a

>  <inspiration_score>  (73) 
None

$$$$
P103474
     RDKit          3D

 39 42  0  0  0  0  0  0  0  0999 V2000
   -2.6675    5.5694   -8.3768 C   0  0  0  0  0  0  0  0  0  0  0  0
   -2.1429    4.1341   -8.2517 C   0  0  0  0  0  0  0  0  0  0  0  0
   -0.9098    3.8909   -9.1288 C   0  0  0  0  0  0  0  0  0  0  0  0
   -1.7549    3.8855   -6.7859 C   0  0  0  0  0  0  0  0  0  0  0  0
   -3.1854    3.1652   -8.5244 O   0  0  0  0  0  0  0  0  0  0  0  0
   -3.7911    3.1065   -9.7469 C   0  0  0  0  0  0  0  0  0  0  0  0
   -3.4829    3.8206  -10.6587 O   0  0  0  0  0  0  0  0  0  0  0  0
   -4.7692    2.0946   -9.6641 N   0  0  0  0  0  0  0  0  0  0  0  0
   -5.6623    1.5062  -10.7156 C   0  0  0  0  0  0  0  0  0  0  0  0
   -6.0873    2.4213  -11.8802 C   0  0  0  0  0  0  0  0  0  0  0  0
   -6.7536    3.6548  -11.3574 C   0  0  0  0  0  0  0  0  0  0  0  0
   -7.2328    4.6889  -12.1588 C   0  0  0  0  0  0  0  0  0  0  0  0
   -7.1440    4.6025  -13.5414 N   0  0  0  0  0  0  0  0  0  0  0  0
   -7.2328    5.6045  -14.5463 C   0  0  0  0  0  0  0  0  0  0  0  0
   -7.3284    6.7930  -14.4600 O   0  0  0  0  0  0  0  0  0  0  0  0
   -7.3130    5.0436  -15.9033 C   0  0  0  0  0  0  0  0  0  0  0  0
   -8.5638    4.6156  -16.3420 C   0  0  0  0  0  0  0  0  0  0  0  0
   -8.7304    4.3246  -17.6863 C   0  0  0  0  0  0  0  0  0  0  0  0
  -10.2981    3.9640  -18.2690 Cl  0  0  0  0  0  0  0  0  0  0  0  0
   -7.6607    4.4163  -18.5736 C   0  0  0  0  0  0  0  0  0  0  0  0
   -6.3990    4.8037  -18.1141 C   0  0  0  0  0  0  0  0  0  0  0  0
   -5.3644    4.8775  -19.0419 N   0  0  0  0  0  0  0  0  0  0  0  0
   -3.9853    5.1437  -18.8768 C   0  0  0  0  0  0  0  0  0  0  0  0
   -3.3320    5.2977  -17.8899 O   0  0  0  0  0  0  0  0  0  0  0  0
   -3.4656    5.1589  -20.1344 O   0  0  0  0  0  0  0  0  0  0  0  0
   -2.0604    5.4304  -20.2390 C   0  0  0  0  0  0  0  0  0  0  0  0
   -1.8666    6.9094  -20.4658 C   0  0  0  0  0  0  0  0  0  0  0  0
   -1.6517    7.7733  -19.3831 C   0  0  0  0  0  0  0  0  0  0  0  0
   -1.5109    9.1465  -19.5892 C   0  0  0  0  0  0  0  0  0  0  0  0
   -1.5876    9.6699  -20.8786 C   0  0  0  0  0  0  0  0  0  0  0  0
   -1.8098    8.8214  -21.9622 C   0  0  0  0  0  0  0  0  0  0  0  0
   -1.9537    7.4481  -21.7569 C   0  0  0  0  0  0  0  0  0  0  0  0
   -6.2217    5.1295  -16.7699 C   0  0  0  0  0  0  0  0  0  0  0  0
   -7.7864    5.8281  -11.5654 C   0  0  0  0  0  0  0  0  0  0  0  0
   -7.8913    5.9250  -10.1799 C   0  0  0  0  0  0  0  0  0  0  0  0
   -7.3885    4.9060   -9.3772 C   0  0  0  0  0  0  0  0  0  0  0  0
   -7.5421    5.0910   -7.6680 Cl  0  0  0  0  0  0  0  0  0  0  0  0
   -6.7704    3.7922   -9.9655 C   0  0  0  0  0  0  0  0  0  0  0  0
   -6.1043    2.6870   -9.1750 C   0  0  0  0  0  0  0  0  0  0  0  0
  1  2  1  0
  2  3  1  0
  2  4  1  0
  2  5  1  0
  5  6  1  0
  6  7  2  0
  6  8  1  0
  8  9  1  0
  9 10  1  0
 10 11  1  0
 11 12  2  0
 12 13  1  0
 13 14  1  0
 14 15  2  0
 14 16  1  0
 16 17  2  0
 17 18  1  0
 18 19  1  0
 18 20  2  0
 20 21  1  0
 21 22  1  0
 22 23  1  0
 23 24  2  0
 23 25  1  0
 25 26  1  0
 26 27  1  0
 27 28  2  0
 28 29  1  0
 29 30  2  0
 30 31  1  0
 31 32  2  0
 21 33  2  0
 12 34  1  0
 34 35  2  0
 35 36  1  0
 36 37  1  0
 36 38  2  0
 38 39  1  0
 39  8  1  0
 38 11  1  0
 33 16  1  0
 32 27  1  0
M  END
>  <name>  (74) 
P103474

>  <alias>  (74) 
None

>  <smina_score_min>  (74) 
-7.496

>  <exports>  (74) 
['/opt/xchem-fragalysis-2/maxwin/BulkDock/OUTPUTS/openbind_xx01zvns2b_c2_elabs_1LOUTNY.sdf', '/opt/xchem-fragalysis-2/maxwin/BulkDock/OUTPUTS/openbind_xx01zvns2b_c2_elabs_1LSYIIV.sdf']

>  <tags>  (74) 
syndirella_placed,openbind_xx01zvns2b_c2_elabs,openbind_xx01zvns2b_c2_elabs_scored_6.2plus,syndirella_product,openbind_xx01zvns2b_c2_elabs_scored,openbind_xx01zvns2b_c2_elabs_scored_top80percent,BulkDock Fragalysis export

>  <subsites>  (74) 
1 - Z4590/B/203/1

>  <smiles>  (74) 
CC(C)(C)OC(=O)N1CCc2c(NC(=O)c3cc(Cl)cc(NC(=O)OCc4ccccc4)c3)ccc(Cl)c2C1

>  <HIPPO Pose ID>  (74) 
103474

>  <energy_score>  (74) 
-2.394264

>  <inchikey>  (74) 
CMWUTYZJUVZFMU-UHFFFAOYSA-N

>  <gnina_score_min>  (74) 
6.715

>  <gnina_score>  (74) 
6.691

>  <ref_mols>  (74) 
Z2992a

>  <HIPPO Compound ID>  (74) 
163212

>  <distance_score>  (74) 
1.228803

>  <rmsd(smina/fragmenstein)>  (74) 
1.383

>  <ref_pdb>  (74) 
Z2992a

>  <inspiration_score>  (74) 
None

$$$$
P103475
     RDKit          3D

 39 43  0  0  0  0  0  0  0  0999 V2000
   -3.4913    5.0700  -17.9484 O   0  0  0  0  0  0  0  0  0  0  0  0
   -4.1458    5.0337  -18.9087 C   0  0  0  0  0  0  0  0  0  0  0  0
   -5.6497    4.8115  -19.0763 N   0  0  0  0  0  0  0  0  0  0  0  0
   -6.6555    4.6843  -18.1257 C   0  0  0  0  0  0  0  0  0  0  0  0
   -7.9473    4.3890  -18.5527 C   0  0  0  0  0  0  0  0  0  0  0  0
   -8.9793    4.2920  -17.6218 C   0  0  0  0  0  0  0  0  0  0  0  0
  -10.5855    4.0722  -18.1760 Cl  0  0  0  0  0  0  0  0  0  0  0  0
   -8.7433    4.4762  -16.2626 C   0  0  0  0  0  0  0  0  0  0  0  0
   -7.4528    4.7873  -15.8417 C   0  0  0  0  0  0  0  0  0  0  0  0
   -7.1897    5.2377  -14.4535 C   0  0  0  0  0  0  0  0  0  0  0  0
   -6.5910    6.2343  -14.3307 O   0  0  0  0  0  0  0  0  0  0  0  0
   -7.8333    4.3159  -13.3887 N   0  0  0  0  0  0  0  0  0  0  0  0
   -7.7943    4.3759  -11.9992 C   0  0  0  0  0  0  0  0  0  0  0  0
   -7.0693    5.4070  -11.3634 C   0  0  0  0  0  0  0  0  0  0  0  0
   -7.0070    5.4961   -9.9719 C   0  0  0  0  0  0  0  0  0  0  0  0
   -7.6792    4.5326   -9.2521 C   0  0  0  0  0  0  0  0  0  0  0  0
   -8.4113    3.5440   -9.8648 C   0  0  0  0  0  0  0  0  0  0  0  0
   -8.4892    3.4308  -11.2421 C   0  0  0  0  0  0  0  0  0  0  0  0
   -9.1610    2.8681   -8.8162 C   0  0  0  0  0  0  0  0  0  0  0  0
  -10.1264    2.1798   -9.0796 O   0  0  0  0  0  0  0  0  0  0  0  0
   -8.7286    3.3584   -7.5984 N   0  0  0  0  0  0  0  0  0  0  0  0
   -9.6529    3.3375   -6.4692 C   0  0  2  0  0  0  0  0  0  0  0  0
   -9.1734    3.9639   -5.1437 C   0  0  0  0  0  0  0  0  0  0  0  0
  -10.2848    3.9930   -4.0746 C   0  0  0  0  0  0  0  0  0  0  0  0
  -11.5655    3.2956   -4.5315 C   0  0  0  0  0  0  0  0  0  0  0  0
  -11.2423    2.0408   -5.1497 N   0  0  0  0  0  0  0  0  0  0  0  0
  -10.2559    1.9684   -6.1119 C   0  0  0  0  0  0  0  0  0  0  0  0
   -9.9397    0.8896   -6.5862 O   0  0  0  0  0  0  0  0  0  0  0  0
   -7.8939    4.4265   -7.8174 C   0  0  0  0  0  0  0  0  0  0  0  0
   -7.4678    5.2788   -7.0562 O   0  0  0  0  0  0  0  0  0  0  0  0
   -6.4071    4.8835  -16.7700 C   0  0  0  0  0  0  0  0  0  0  0  0
   -3.6649    5.1659  -20.1742 O   0  0  0  0  0  0  0  0  0  0  0  0
   -2.2600    5.4383  -20.2840 C   0  0  0  0  0  0  0  0  0  0  0  0
   -2.0676    6.9293  -20.4219 C   0  0  0  0  0  0  0  0  0  0  0  0
   -1.9676    7.7453  -19.2854 C   0  0  0  0  0  0  0  0  0  0  0  0
   -1.8306    9.1284  -19.4147 C   0  0  0  0  0  0  0  0  0  0  0  0
   -1.7930    9.7100  -20.6806 C   0  0  0  0  0  0  0  0  0  0  0  0
   -1.8979    8.9099  -21.8172 C   0  0  0  0  0  0  0  0  0  0  0  0
   -2.0397    7.5269  -21.6890 C   0  0  0  0  0  0  0  0  0  0  0  0
  1  2  2  0
  2  3  1  0
  3  4  1  0
  4  5  2  0
  5  6  1  0
  6  7  1  0
  6  8  2  0
  8  9  1  0
  9 10  1  0
 10 11  2  0
 10 12  1  0
 12 13  1  0
 13 14  2  0
 14 15  1  0
 15 16  2  0
 16 17  1  0
 17 18  2  0
 17 19  1  0
 19 20  2  0
 19 21  1  0
 22 21  1  6
 22 23  1  0
 23 24  1  0
 24 25  1  0
 25 26  1  0
 26 27  1  0
 27 28  2  0
 21 29  1  0
 29 30  2  0
  9 31  2  0
  2 32  1  0
 32 33  1  0
 33 34  1  0
 34 35  2  0
 35 36  1  0
 36 37  2  0
 37 38  1  0
 38 39  2  0
 31  4  1  0
 39 34  1  0
 18 13  1  0
 27 22  1  0
 29 16  1  0
M  END
>  <name>  (75) 
P103475

>  <alias>  (75) 
None

>  <smina_score_min>  (75) 
-9.62

>  <exports>  (75) 
['/opt/xchem-fragalysis-2/maxwin/BulkDock/OUTPUTS/openbind_xx01zvns2b_c2_elabs_1LOUTNY.sdf', '/opt/xchem-fragalysis-2/maxwin/BulkDock/OUTPUTS/openbind_xx01zvns2b_c2_elabs_1LSYIIV.sdf']

>  <tags>  (75) 
syndirella_placed,openbind_xx01zvns2b_c2_elabs,openbind_xx01zvns2b_c2_elabs_scored_6.2plus,syndirella_product,openbind_xx01zvns2b_c2_elabs_scored,openbind_xx01zvns2b_c2_elabs_scored_top80percent,BulkDock Fragalysis export

>  <subsites>  (75) 
1 - Z4590/B/203/1

>  <smiles>  (75) 
O=C(Nc1cc(Cl)cc(C(=O)Nc2ccc3c(c2)C(=O)N([C@@H]2CCCNC2=O)C3=O)c1)OCc1ccccc1

>  <HIPPO Pose ID>  (75) 
103475

>  <energy_score>  (75) 
-23.35978

>  <inchikey>  (75) 
YQMYIKSXWQVMIM-HSZRJFAPSA-N

>  <gnina_score_min>  (75) 
6.398

>  <gnina_score>  (75) 
6.342

>  <ref_mols>  (75) 
Z2992a

>  <HIPPO Compound ID>  (75) 
163214

>  <distance_score>  (75) 
0.589913

>  <rmsd(smina/fragmenstein)>  (75) 
1.096

>  <ref_pdb>  (75) 
Z2992a

>  <inspiration_score>  (75) 
None

$$$$
P103476
     RDKit          3D

 39 43  0  0  0  0  0  0  0  0999 V2000
  -10.0586    4.3486   -2.5715 O   0  0  0  0  0  0  0  0  0  0  0  0
   -9.6439    3.7474   -3.5594 C   0  0  0  0  0  0  0  0  0  0  0  0
  -10.5396    3.0367   -4.5367 C   0  0  0  0  0  0  0  0  0  0  0  0
  -10.1674    3.4361   -5.9405 C   0  0  0  0  0  0  0  0  0  0  0  0
   -8.7074    3.0757   -6.2329 C   0  0  1  0  0  0  0  0  0  0  0  0
   -8.3770    3.5450   -7.5777 N   0  0  0  0  0  0  0  0  0  0  0  0
   -7.8469    4.8694   -7.8249 C   0  0  0  0  0  0  0  0  0  0  0  0
   -7.9210    4.9773   -9.3036 C   0  0  0  0  0  0  0  0  0  0  0  0
   -7.4801    6.0047  -10.1067 C   0  0  0  0  0  0  0  0  0  0  0  0
   -7.5410    5.8112  -11.4834 C   0  0  0  0  0  0  0  0  0  0  0  0
   -8.0423    4.6147  -12.0388 C   0  0  0  0  0  0  0  0  0  0  0  0
   -7.9555    4.4303  -13.4151 N   0  0  0  0  0  0  0  0  0  0  0  0
   -7.2938    5.3063  -14.5073 C   0  0  0  0  0  0  0  0  0  0  0  0
   -6.6525    6.2792  -14.4127 O   0  0  0  0  0  0  0  0  0  0  0  0
   -7.5310    4.8038  -15.8800 C   0  0  0  0  0  0  0  0  0  0  0  0
   -8.8118    4.4615  -16.2991 C   0  0  0  0  0  0  0  0  0  0  0  0
   -9.0424    4.2727  -17.6577 C   0  0  0  0  0  0  0  0  0  0  0  0
  -10.6496    4.0574  -18.2063 Cl  0  0  0  0  0  0  0  0  0  0  0  0
   -8.0117    4.3830  -18.5892 C   0  0  0  0  0  0  0  0  0  0  0  0
   -6.7273    4.7068  -18.1621 C   0  0  0  0  0  0  0  0  0  0  0  0
   -5.7246    4.8936  -19.1070 N   0  0  0  0  0  0  0  0  0  0  0  0
   -4.2130    5.0548  -18.9341 C   0  0  0  0  0  0  0  0  0  0  0  0
   -3.5685    5.1344  -17.9696 O   0  0  0  0  0  0  0  0  0  0  0  0
   -3.7147    5.1210  -20.1987 O   0  0  0  0  0  0  0  0  0  0  0  0
   -2.3071    5.3866  -20.2994 C   0  0  0  0  0  0  0  0  0  0  0  0
   -2.0993    6.8761  -20.4440 C   0  0  0  0  0  0  0  0  0  0  0  0
   -1.9727    7.6954  -19.3124 C   0  0  0  0  0  0  0  0  0  0  0  0
   -1.8232    9.0768  -19.4482 C   0  0  0  0  0  0  0  0  0  0  0  0
   -1.7985    9.6538  -20.7163 C   0  0  0  0  0  0  0  0  0  0  0  0
   -1.9286    8.8507  -21.8483 C   0  0  0  0  0  0  0  0  0  0  0  0
   -2.0837    7.4697  -21.7132 C   0  0  0  0  0  0  0  0  0  0  0  0
   -6.4854    4.9127  -16.8068 C   0  0  0  0  0  0  0  0  0  0  0  0
   -8.5588    3.6116  -11.2175 C   0  0  0  0  0  0  0  0  0  0  0  0
   -8.4747    3.8199   -9.8519 C   0  0  0  0  0  0  0  0  0  0  0  0
   -8.8689    2.9495   -8.7335 C   0  0  0  0  0  0  0  0  0  0  0  0
   -9.5569    1.9540   -8.8260 O   0  0  0  0  0  0  0  0  0  0  0  0
   -7.7802    3.6385   -5.1131 C   0  0  0  0  0  0  0  0  0  0  0  0
   -6.6243    4.0453   -5.2663 O   0  0  0  0  0  0  0  0  0  0  0  0
   -8.3100    3.7124   -3.8481 N   0  0  0  0  0  0  0  0  0  0  0  0
  1  2  2  0
  2  3  1  0
  3  4  1  0
  4  5  1  0
  5  6  1  6
  6  7  1  0
  7  8  1  0
  8  9  2  0
  9 10  1  0
 10 11  2  0
 11 12  1  0
 12 13  1  0
 13 14  2  0
 13 15  1  0
 15 16  2  0
 16 17  1  0
 17 18  1  0
 17 19  2  0
 19 20  1  0
 20 21  1  0
 21 22  1  0
 22 23  2  0
 22 24  1  0
 24 25  1  0
 25 26  1  0
 26 27  2  0
 27 28  1  0
 28 29  2  0
 29 30  1  0
 30 31  2  0
 20 32  2  0
 11 33  1  0
 33 34  2  0
 34 35  1  0
 35 36  2  0
  5 37  1  0
 37 38  2  0
 37 39  1  0
 39  2  1  0
 35  6  1  0
 34  8  1  0
 32 15  1  0
 31 26  1  0
M  END
>  <name>  (76) 
P103476

>  <alias>  (76) 
None

>  <smina_score_min>  (76) 
-10.248

>  <exports>  (76) 
['/opt/xchem-fragalysis-2/maxwin/BulkDock/OUTPUTS/openbind_xx01zvns2b_c2_elabs_1LOUTNY.sdf', '/opt/xchem-fragalysis-2/maxwin/BulkDock/OUTPUTS/openbind_xx01zvns2b_c2_elabs_1LSYIIV.sdf']

>  <tags>  (76) 
syndirella_placed,openbind_xx01zvns2b_c2_elabs,openbind_xx01zvns2b_c2_elabs_scored_6.2plus,syndirella_product,openbind_xx01zvns2b_c2_elabs_scored,openbind_xx01zvns2b_c2_elabs_scored_top80percent,BulkDock Fragalysis export

>  <subsites>  (76) 
1 - Z4590/B/203/1

>  <smiles>  (76) 
O=C1CC[C@@H](N2Cc3ccc(NC(=O)c4cc(Cl)cc(NC(=O)OCc5ccccc5)c4)cc3C2=O)C(=O)N1

>  <HIPPO Pose ID>  (76) 
103476

>  <energy_score>  (76) 
-36.571035

>  <inchikey>  (76) 
SGRUIJOWQZLCGE-HSZRJFAPSA-N

>  <gnina_score_min>  (76) 
6.267

>  <gnina_score>  (76) 
6.228

>  <ref_mols>  (76) 
Z2992a

>  <HIPPO Compound ID>  (76) 
163215

>  <distance_score>  (76) 
0.525315

>  <rmsd(smina/fragmenstein)>  (76) 
1.769

>  <ref_pdb>  (76) 
Z2992a

>  <inspiration_score>  (76) 
None

$$$$
P103477
     RDKit          3D

 39 42  0  0  0  0  0  0  0  0999 V2000
    1.8692   -1.2091  -11.0179 C   0  0  0  0  0  0  0  0  0  0  0  0
    1.2183   -0.2822  -10.0359 C   0  0  0  0  0  0  0  0  0  0  0  0
    1.9527    0.2189   -8.9552 C   0  0  0  0  0  0  0  0  0  0  0  0
    1.3661    1.1141   -8.0612 C   0  0  0  0  0  0  0  0  0  0  0  0
    0.0459    1.5283   -8.2474 C   0  0  0  0  0  0  0  0  0  0  0  0
   -0.6954    1.0443   -9.3242 C   0  0  0  0  0  0  0  0  0  0  0  0
   -2.0021    1.4699   -9.5633 N   0  0  0  0  0  0  0  0  0  0  0  0
   -2.8136    2.5555   -8.9147 C   0  0  0  0  0  0  0  0  0  0  0  0
   -2.5587    3.2484   -7.9985 O   0  0  0  0  0  0  0  0  0  0  0  0
   -4.0245    2.5333   -9.8062 N   0  0  0  0  0  0  0  0  0  0  0  0
   -5.1338    3.3790   -9.8565 C   0  0  0  0  0  0  0  0  0  0  0  0
   -5.2561    4.4713   -8.9972 C   0  0  0  0  0  0  0  0  0  0  0  0
   -6.3522    5.3286   -9.0918 C   0  0  0  0  0  0  0  0  0  0  0  0
   -7.3359    5.0944  -10.0466 C   0  0  0  0  0  0  0  0  0  0  0  0
   -7.2407    3.9919  -10.9081 C   0  0  0  0  0  0  0  0  0  0  0  0
   -8.3533    3.7134  -11.8757 C   0  0  0  0  0  0  0  0  0  0  0  0
   -7.9948    3.8529  -13.2633 N   0  0  0  0  0  0  0  0  0  0  0  0
   -7.4994    4.9723  -13.9938 C   0  0  0  0  0  0  0  0  0  0  0  0
   -7.1775    6.0638  -13.6288 O   0  0  0  0  0  0  0  0  0  0  0  0
   -7.4865    4.7327  -15.4599 C   0  0  0  0  0  0  0  0  0  0  0  0
   -8.6946    4.4181  -16.0862 C   0  0  0  0  0  0  0  0  0  0  0  0
   -8.7376    4.3183  -17.4690 C   0  0  0  0  0  0  0  0  0  0  0  0
  -10.2354    4.0266  -18.2489 Cl  0  0  0  0  0  0  0  0  0  0  0  0
   -7.5888    4.5092  -18.2293 C   0  0  0  0  0  0  0  0  0  0  0  0
   -6.3744    4.8033  -17.6020 C   0  0  0  0  0  0  0  0  0  0  0  0
   -5.2605    4.9476  -18.4254 N   0  0  0  0  0  0  0  0  0  0  0  0
   -3.9059    5.2069  -18.1185 C   0  0  0  0  0  0  0  0  0  0  0  0
   -3.3727    5.4480  -17.0785 O   0  0  0  0  0  0  0  0  0  0  0  0
   -3.2564    5.1600  -19.3118 O   0  0  0  0  0  0  0  0  0  0  0  0
   -1.8632    5.4954  -19.3054 C   0  0  0  0  0  0  0  0  0  0  0  0
   -1.7199    6.9120  -19.8013 C   0  0  0  0  0  0  0  0  0  0  0  0
   -1.5868    7.1772  -21.1712 C   0  0  0  0  0  0  0  0  0  0  0  0
   -1.4927    8.4919  -21.6311 C   0  0  0  0  0  0  0  0  0  0  0  0
   -1.5385    9.5527  -20.7276 C   0  0  0  0  0  0  0  0  0  0  0  0
   -1.6816    9.3004  -19.3642 C   0  0  0  0  0  0  0  0  0  0  0  0
   -1.7755    7.9866  -18.9028 C   0  0  0  0  0  0  0  0  0  0  0  0
   -6.3230    4.9347  -16.2116 C   0  0  0  0  0  0  0  0  0  0  0  0
   -6.1302    3.1367  -10.8074 C   0  0  0  0  0  0  0  0  0  0  0  0
   -0.1102    0.1340  -10.2102 C   0  0  0  0  0  0  0  0  0  0  0  0
  1  2  1  0
  2  3  2  0
  3  4  1  0
  4  5  2  0
  5  6  1  0
  6  7  1  0
  7  8  1  0
  8  9  2  0
  8 10  1  0
 10 11  1  0
 11 12  2  0
 12 13  1  0
 13 14  2  0
 14 15  1  0
 15 16  1  0
 16 17  1  0
 17 18  1  0
 18 19  2  0
 18 20  1  0
 20 21  2  0
 21 22  1  0
 22 23  1  0
 22 24  2  0
 24 25  1  0
 25 26  1  0
 26 27  1  0
 27 28  2  0
 27 29  1  0
 29 30  1  0
 30 31  1  0
 31 32  2  0
 32 33  1  0
 33 34  2  0
 34 35  1  0
 35 36  2  0
 25 37  2  0
 15 38  2  0
  6 39  2  0
 39  2  1  0
 38 11  1  0
 37 20  1  0
 36 31  1  0
M  END
>  <name>  (77) 
P103477

>  <alias>  (77) 
None

>  <smina_score_min>  (77) 
-8.101

>  <exports>  (77) 
['/opt/xchem-fragalysis-2/maxwin/BulkDock/OUTPUTS/openbind_xx01zvns2b_c2_elabs_1LOUTNY.sdf', '/opt/xchem-fragalysis-2/maxwin/BulkDock/OUTPUTS/openbind_xx01zvns2b_c2_elabs_1LSYIIV.sdf']

>  <tags>  (77) 
syndirella_placed,openbind_xx01zvns2b_c2_elabs,openbind_xx01zvns2b_c2_elabs_scored_6.2plus,syndirella_product,openbind_xx01zvns2b_c2_elabs_scored,openbind_xx01zvns2b_c2_elabs_scored_top80percent,BulkDock Fragalysis export

>  <subsites>  (77) 
1 - Z4590/B/203/1

>  <smiles>  (77) 
Cc1cccc(NC(=O)Nc2cccc(CNC(=O)c3cc(Cl)cc(NC(=O)OCc4ccccc4)c3)c2)c1

>  <HIPPO Pose ID>  (77) 
103477

>  <energy_score>  (77) 
-69.793497

>  <inchikey>  (77) 
HNDURIVTTTXERJ-UHFFFAOYSA-N

>  <gnina_score_min>  (77) 
6.349

>  <gnina_score>  (77) 
6.384

>  <ref_mols>  (77) 
Z2992a

>  <HIPPO Compound ID>  (77) 
163218

>  <distance_score>  (77) 
1.855786

>  <rmsd(smina/fragmenstein)>  (77) 
2.069

>  <ref_pdb>  (77) 
Z2992a

>  <inspiration_score>  (77) 
None

$$$$
P103596
     RDKit          3D

 26 29  0  0  0  0  0  0  0  0999 V2000
  -10.7308    2.1648   -5.7648 C   0  0  0  0  0  0  0  0  0  0  0  0
   -9.2695    2.3211   -6.1145 C   0  0  0  0  0  0  0  0  0  0  0  0
   -9.0660    2.9744   -7.3759 N   0  0  0  0  0  0  0  0  0  0  0  0
   -9.0645    2.2404   -8.6324 C   0  0  0  0  0  0  0  0  0  0  0  0
   -8.6360    3.2924   -9.5984 C   0  0  0  0  0  0  0  0  0  0  0  0
   -8.4654    3.2213  -10.9688 C   0  0  0  0  0  0  0  0  0  0  0  0
   -7.9971    4.3633  -11.6317 C   0  0  0  0  0  0  0  0  0  0  0  0
   -7.7950    4.3009  -13.0047 N   0  0  0  0  0  0  0  0  0  0  0  0
   -7.1746    5.3309  -13.9760 C   0  0  0  0  0  0  0  0  0  0  0  0
   -6.6665    6.3604  -13.7641 O   0  0  0  0  0  0  0  0  0  0  0  0
   -7.3051    4.8885  -15.3816 C   0  0  0  0  0  0  0  0  0  0  0  0
   -8.5688    4.4824  -15.8598 C   0  0  0  0  0  0  0  0  0  0  0  0
   -8.7399    4.1937  -17.2101 C   0  0  0  0  0  0  0  0  0  0  0  0
  -10.2970    3.9489  -17.8467 Cl  0  0  0  0  0  0  0  0  0  0  0  0
   -7.6395    4.2601  -18.0271 C   0  0  0  0  0  0  0  0  0  0  0  0
   -7.5098    4.0015  -19.3864 N   0  0  0  0  0  0  0  0  0  0  0  0
   -6.2064    4.3113  -19.7837 C   0  0  0  0  0  0  0  0  0  0  0  0
   -5.7289    4.2121  -20.9014 O   0  0  0  0  0  0  0  0  0  0  0  0
   -5.5266    4.7349  -18.6270 N   0  0  0  0  0  0  0  0  0  0  0  0
   -6.4056    4.6882  -17.5513 C   0  0  0  0  0  0  0  0  0  0  0  0
   -6.2016    5.0209  -16.2348 C   0  0  0  0  0  0  0  0  0  0  0  0
   -7.7366    5.5536  -10.9267 C   0  0  0  0  0  0  0  0  0  0  0  0
   -7.9355    5.6262   -9.5498 C   0  0  0  0  0  0  0  0  0  0  0  0
   -8.3765    4.4833   -8.9202 C   0  0  0  0  0  0  0  0  0  0  0  0
   -8.6453    4.2790   -7.4980 C   0  0  0  0  0  0  0  0  0  0  0  0
   -8.5085    5.1252   -6.6338 O   0  0  0  0  0  0  0  0  0  0  0  0
  1  2  1  0
  2  3  1  0
  3  4  1  0
  4  5  1  0
  5  6  2  0
  6  7  1  0
  7  8  1  0
  8  9  1  0
  9 10  2  0
  9 11  1  0
 11 12  2  0
 12 13  1  0
 13 14  1  0
 13 15  2  0
 15 16  1  0
 16 17  1  0
 17 18  2  0
 17 19  1  0
 19 20  1  0
 20 21  2  0
  7 22  2  0
 22 23  1  0
 23 24  2  0
 24 25  1  0
 25 26  2  0
 25  3  1  0
 24  5  1  0
 21 11  1  0
 20 15  1  0
M  END
>  <name>  (78) 
P103596

>  <alias>  (78) 
None

>  <smina_score_min>  (78) 
-8.789

>  <exports>  (78) 
['/opt/xchem-fragalysis-2/maxwin/BulkDock/OUTPUTS/openbind_xx01zvns2b_c2_elabs_1LOUTNY.sdf', '/opt/xchem-fragalysis-2/maxwin/BulkDock/OUTPUTS/openbind_xx01zvns2b_c2_elabs_1LSYIIV.sdf']

>  <tags>  (78) 
syndirella_placed,openbind_xx01zvns2b_c2_elabs,openbind_xx01zvns2b_c2_elabs_scored_6.2plus,syndirella_product,openbind_xx01zvns2b_c2_elabs_scored,openbind_xx01zvns2b_c2_elabs_scored_top80percent,BulkDock Fragalysis export

>  <subsites>  (78) 
1 - Z4590/B/203/1

>  <smiles>  (78) 
CCN1Cc2cc(NC(=O)c3cc(Cl)c4[nH]c(=O)[nH]c4c3)ccc2C1=O

>  <HIPPO Pose ID>  (78) 
103596

>  <energy_score>  (78) 
-28.208228

>  <inchikey>  (78) 
WNQHHCNMXFZBDR-UHFFFAOYSA-N

>  <gnina_score_min>  (78) 
6.37

>  <gnina_score>  (78) 
6.294

>  <ref_mols>  (78) 
Z4245a

>  <HIPPO Compound ID>  (78) 
163405

>  <distance_score>  (78) 
0.602301

>  <rmsd(smina/fragmenstein)>  (78) 
0.263

>  <ref_pdb>  (78) 
Z4245a

>  <inspiration_score>  (78) 
None

$$$$
P103607
     RDKit          3D

 26 29  0  0  0  0  0  0  0  0999 V2000
  -10.6783    2.1873   -5.7846 C   0  0  0  0  0  0  0  0  0  0  0  0
   -9.2164    2.3388   -6.1393 C   0  0  0  0  0  0  0  0  0  0  0  0
   -9.0184    2.9724   -7.4125 N   0  0  0  0  0  0  0  0  0  0  0  0
   -9.0577    2.2234   -8.6593 C   0  0  0  0  0  0  0  0  0  0  0  0
   -8.6692    3.2650   -9.6532 C   0  0  0  0  0  0  0  0  0  0  0  0
   -8.5791    3.1856  -11.0315 C   0  0  0  0  0  0  0  0  0  0  0  0
   -8.1715    4.3278  -11.7334 C   0  0  0  0  0  0  0  0  0  0  0  0
   -8.0892    4.2654  -13.1208 N   0  0  0  0  0  0  0  0  0  0  0  0
   -7.5935    5.3127  -14.1462 C   0  0  0  0  0  0  0  0  0  0  0  0
   -7.2493    6.4184  -13.9930 O   0  0  0  0  0  0  0  0  0  0  0  0
   -7.6410    4.7954  -15.5356 C   0  0  0  0  0  0  0  0  0  0  0  0
   -8.8029    4.1559  -16.0166 C   0  0  0  0  0  0  0  0  0  0  0  0
   -8.8817    3.7737  -17.3504 C   0  0  0  0  0  0  0  0  0  0  0  0
   -9.9819    3.1925  -17.8302 F   0  0  0  0  0  0  0  0  0  0  0  0
   -7.8061    4.0175  -18.1604 C   0  0  0  0  0  0  0  0  0  0  0  0
   -7.6121    3.7128  -19.5003 N   0  0  0  0  0  0  0  0  0  0  0  0
   -6.3565    4.1940  -19.8894 C   0  0  0  0  0  0  0  0  0  0  0  0
   -5.8377    4.0969  -20.9890 O   0  0  0  0  0  0  0  0  0  0  0  0
   -5.7780    4.7794  -18.7466 N   0  0  0  0  0  0  0  0  0  0  0  0
   -6.6688    4.6585  -17.6865 C   0  0  0  0  0  0  0  0  0  0  0  0
   -6.5510    5.0664  -16.3797 C   0  0  0  0  0  0  0  0  0  0  0  0
   -7.8644    5.5202  -11.0501 C   0  0  0  0  0  0  0  0  0  0  0  0
   -7.9730    5.5987   -9.6619 C   0  0  0  0  0  0  0  0  0  0  0  0
   -8.3755    4.4606   -8.9983 C   0  0  0  0  0  0  0  0  0  0  0  0
   -8.5896    4.2715   -7.5635 C   0  0  0  0  0  0  0  0  0  0  0  0
   -8.4169    5.1255   -6.7136 O   0  0  0  0  0  0  0  0  0  0  0  0
  1  2  1  0
  2  3  1  0
  3  4  1  0
  4  5  1  0
  5  6  2  0
  6  7  1  0
  7  8  1  0
  8  9  1  0
  9 10  2  0
  9 11  1  0
 11 12  2  0
 12 13  1  0
 13 14  1  0
 13 15  2  0
 15 16  1  0
 16 17  1  0
 17 18  2  0
 17 19  1  0
 19 20  1  0
 20 21  2  0
  7 22  2  0
 22 23  1  0
 23 24  2  0
 24 25  1  0
 25 26  2  0
 25  3  1  0
 24  5  1  0
 21 11  1  0
 20 15  1  0
M  END
>  <name>  (79) 
P103607

>  <alias>  (79) 
None

>  <smina_score_min>  (79) 
-9.347

>  <exports>  (79) 
['/opt/xchem-fragalysis-2/maxwin/BulkDock/OUTPUTS/openbind_xx01zvns2b_c2_elabs_1LOUTNY.sdf', '/opt/xchem-fragalysis-2/maxwin/BulkDock/OUTPUTS/openbind_xx01zvns2b_c2_elabs_1LSYIIV.sdf']

>  <tags>  (79) 
syndirella_placed,openbind_xx01zvns2b_c2_elabs,openbind_xx01zvns2b_c2_elabs_scored_6.2plus,syndirella_product,openbind_xx01zvns2b_c2_elabs_scored,openbind_xx01zvns2b_c2_elabs_scored_top80percent,BulkDock Fragalysis export

>  <subsites>  (79) 
1 - Z4590/B/203/1

>  <smiles>  (79) 
CCN1Cc2cc(NC(=O)c3cc(F)c4[nH]c(=O)[nH]c4c3)ccc2C1=O

>  <HIPPO Pose ID>  (79) 
103607

>  <energy_score>  (79) 
-31.791045

>  <inchikey>  (79) 
MBXNRWZZGQRVQV-UHFFFAOYSA-N

>  <gnina_score_min>  (79) 
6.241

>  <gnina_score>  (79) 
6.204

>  <ref_mols>  (79) 
Z4245a

>  <HIPPO Compound ID>  (79) 
163422

>  <distance_score>  (79) 
0.586314

>  <rmsd(smina/fragmenstein)>  (79) 
0.287

>  <ref_pdb>  (79) 
Z4245a

>  <inspiration_score>  (79) 
None

$$$$
P103608
     RDKit          3D

 26 29  0  0  0  0  0  0  0  0999 V2000
  -11.4782    2.5618   -5.4422 C   0  0  0  0  0  0  0  0  0  0  0  0
  -10.4318    1.6041   -5.9439 C   0  0  0  0  0  0  0  0  0  0  0  0
   -9.1208    2.3167   -6.2346 C   0  0  0  0  0  0  0  0  0  0  0  0
   -9.2677    3.1499   -7.4150 N   0  0  0  0  0  0  0  0  0  0  0  0
   -8.3197    4.2652   -7.4652 C   0  0  0  0  0  0  0  0  0  0  0  0
   -8.1319    4.5043   -8.9241 C   0  0  0  0  0  0  0  0  0  0  0  0
   -7.5872    5.5958   -9.5649 C   0  0  0  0  0  0  0  0  0  0  0  0
   -7.4748    5.5444  -10.9535 C   0  0  0  0  0  0  0  0  0  0  0  0
   -7.9012    4.4143  -11.6705 C   0  0  0  0  0  0  0  0  0  0  0  0
   -7.7516    4.3512  -13.0493 N   0  0  0  0  0  0  0  0  0  0  0  0
   -7.0937    5.3440  -14.0339 C   0  0  0  0  0  0  0  0  0  0  0  0
   -6.5068    6.3330  -13.8325 O   0  0  0  0  0  0  0  0  0  0  0  0
   -7.2737    4.9071  -15.4365 C   0  0  0  0  0  0  0  0  0  0  0  0
   -8.5500    4.5081  -15.8877 C   0  0  0  0  0  0  0  0  0  0  0  0
   -8.7456    4.1983  -17.2304 C   0  0  0  0  0  0  0  0  0  0  0  0
  -10.3145    3.9552  -17.8386 Cl  0  0  0  0  0  0  0  0  0  0  0  0
   -7.6586    4.2426  -18.0666 C   0  0  0  0  0  0  0  0  0  0  0  0
   -7.5510    3.9550  -19.4222 N   0  0  0  0  0  0  0  0  0  0  0  0
   -6.2535    4.2555  -19.8461 C   0  0  0  0  0  0  0  0  0  0  0  0
   -5.7942    4.1342  -20.9694 O   0  0  0  0  0  0  0  0  0  0  0  0
   -5.5542    4.6990  -18.7094 N   0  0  0  0  0  0  0  0  0  0  0  0
   -6.4153    4.6727  -17.6193 C   0  0  0  0  0  0  0  0  0  0  0  0
   -6.1855    5.0202  -16.3120 C   0  0  0  0  0  0  0  0  0  0  0  0
   -8.4731    3.3244  -11.0108 C   0  0  0  0  0  0  0  0  0  0  0  0
   -8.5788    3.3901   -9.6352 C   0  0  0  0  0  0  0  0  0  0  0  0
   -9.1133    2.3800   -8.6731 C   0  0  0  0  0  0  0  0  0  0  0  0
  1  2  1  0
  2  3  1  0
  3  4  1  0
  4  5  1  0
  5  6  1  0
  6  7  2  0
  7  8  1  0
  8  9  2  0
  9 10  1  0
 10 11  1  0
 11 12  2  0
 11 13  1  0
 13 14  2  0
 14 15  1  0
 15 16  1  0
 15 17  2  0
 17 18  1  0
 18 19  1  0
 19 20  2  0
 19 21  1  0
 21 22  1  0
 22 23  2  0
  9 24  1  0
 24 25  2  0
 25 26  1  0
 26  4  1  0
 25  6  1  0
 23 13  1  0
 22 17  1  0
M  END
>  <name>  (80) 
P103608

>  <alias>  (80) 
None

>  <smina_score_min>  (80) 
-8.03

>  <exports>  (80) 
['/opt/xchem-fragalysis-2/maxwin/BulkDock/OUTPUTS/openbind_xx01zvns2b_c2_elabs_1LOUTNY.sdf', '/opt/xchem-fragalysis-2/maxwin/BulkDock/OUTPUTS/openbind_xx01zvns2b_c2_elabs_1LSYIIV.sdf']

>  <tags>  (80) 
syndirella_placed,openbind_xx01zvns2b_c2_elabs,openbind_xx01zvns2b_c2_elabs_scored_6.2plus,syndirella_product,openbind_xx01zvns2b_c2_elabs_scored,openbind_xx01zvns2b_c2_elabs_scored_top80percent,BulkDock Fragalysis export

>  <subsites>  (80) 
1 - Z4590/B/203/1

>  <smiles>  (80) 
CCCN1Cc2ccc(NC(=O)c3cc(Cl)c4[nH]c(=O)[nH]c4c3)cc2C1

>  <HIPPO Pose ID>  (80) 
103608

>  <energy_score>  (80) 
-13.842587

>  <inchikey>  (80) 
MOLFRSYMLJFJHY-UHFFFAOYSA-N

>  <gnina_score_min>  (80) 
6.365

>  <gnina_score>  (80) 
6.242

>  <ref_mols>  (80) 
Z4245a

>  <HIPPO Compound ID>  (80) 
163425

>  <distance_score>  (80) 
0.688079

>  <rmsd(smina/fragmenstein)>  (80) 
0.323

>  <ref_pdb>  (80) 
Z4245a

>  <inspiration_score>  (80) 
None

$$$$
P103614
     RDKit          3D

 26 29  0  0  0  0  0  0  0  0999 V2000
   -9.9714    2.5803   -6.0182 C   0  0  0  0  0  0  0  0  0  0  0  0
   -8.8726    2.9353   -6.8981 N   0  0  0  0  0  0  0  0  0  0  0  0
   -9.0296    2.3130   -8.2386 C   0  0  0  0  0  0  0  0  0  0  0  0
   -8.6934    3.3807   -9.2284 C   0  0  0  0  0  0  0  0  0  0  0  0
   -8.5754    3.2738  -10.6133 C   0  0  0  0  0  0  0  0  0  0  0  0
   -8.1699    4.4001  -11.3360 C   0  0  0  0  0  0  0  0  0  0  0  0
   -7.9552    4.3001  -12.7137 N   0  0  0  0  0  0  0  0  0  0  0  0
   -7.3492    5.3167  -13.7142 C   0  0  0  0  0  0  0  0  0  0  0  0
   -6.8650    6.3647  -13.5297 O   0  0  0  0  0  0  0  0  0  0  0  0
   -7.4069    4.8413  -15.1228 C   0  0  0  0  0  0  0  0  0  0  0  0
   -8.6367    4.4293  -15.6767 C   0  0  0  0  0  0  0  0  0  0  0  0
   -8.7441    4.2010  -17.0509 C   0  0  0  0  0  0  0  0  0  0  0  0
  -10.2602    3.9512  -17.7858 Cl  0  0  0  0  0  0  0  0  0  0  0  0
   -7.6135    4.3261  -17.8201 C   0  0  0  0  0  0  0  0  0  0  0  0
   -7.4311    4.1640  -19.1899 N   0  0  0  0  0  0  0  0  0  0  0  0
   -6.1091    4.4784  -19.5121 C   0  0  0  0  0  0  0  0  0  0  0  0
   -5.5856    4.4405  -20.6126 O   0  0  0  0  0  0  0  0  0  0  0  0
   -5.4788    4.8301  -18.3037 N   0  0  0  0  0  0  0  0  0  0  0  0
   -6.4043    4.7284  -17.2694 C   0  0  0  0  0  0  0  0  0  0  0  0
   -6.2666    5.0062  -15.9289 C   0  0  0  0  0  0  0  0  0  0  0  0
   -7.9485    5.6130  -10.6654 C   0  0  0  0  0  0  0  0  0  0  0  0
   -8.1020    5.7132   -9.2768 C   0  0  0  0  0  0  0  0  0  0  0  0
   -8.4598    4.5823   -8.5607 C   0  0  0  0  0  0  0  0  0  0  0  0
   -8.5345    4.3728   -7.0631 C   0  0  0  0  0  0  0  0  0  0  0  0
   -7.1274    4.6179   -6.4777 C   0  0  0  0  0  0  0  0  0  0  0  0
   -9.4617    5.3637   -6.3363 C   0  0  0  0  0  0  0  0  0  0  0  0
  1  2  1  0
  2  3  1  0
  3  4  1  0
  4  5  2  0
  5  6  1  0
  6  7  1  0
  7  8  1  0
  8  9  2  0
  8 10  1  0
 10 11  2  0
 11 12  1  0
 12 13  1  0
 12 14  2  0
 14 15  1  0
 15 16  1  0
 16 17  2  0
 16 18  1  0
 18 19  1  0
 19 20  2  0
  6 21  2  0
 21 22  1  0
 22 23  2  0
 23 24  1  0
 24 25  1  0
 24 26  1  0
 24  2  1  0
 23  4  1  0
 20 10  1  0
 19 14  1  0
M  END
>  <name>  (81) 
P103614

>  <alias>  (81) 
None

>  <smina_score_min>  (81) 
-8.995

>  <exports>  (81) 
['/opt/xchem-fragalysis-2/maxwin/BulkDock/OUTPUTS/openbind_xx01zvns2b_c2_elabs_1LOUTNY.sdf', '/opt/xchem-fragalysis-2/maxwin/BulkDock/OUTPUTS/openbind_xx01zvns2b_c2_elabs_1LSYIIV.sdf']

>  <tags>  (81) 
syndirella_placed,openbind_xx01zvns2b_c2_elabs,openbind_xx01zvns2b_c2_elabs_scored_6.2plus,syndirella_product,openbind_xx01zvns2b_c2_elabs_scored,openbind_xx01zvns2b_c2_elabs_scored_top80percent,BulkDock Fragalysis export

>  <subsites>  (81) 
1 - Z4590/B/203/1

>  <smiles>  (81) 
CN1Cc2cc(NC(=O)c3cc(Cl)c4[nH]c(=O)[nH]c4c3)ccc2C1(C)C

>  <HIPPO Pose ID>  (81) 
103614

>  <energy_score>  (81) 
-42.949856

>  <inchikey>  (81) 
VDLYJOHZVYVFBM-UHFFFAOYSA-N

>  <gnina_score_min>  (81) 
6.213

>  <gnina_score>  (81) 
6.347

>  <ref_mols>  (81) 
Z4245a

>  <HIPPO Compound ID>  (81) 
163435

>  <distance_score>  (81) 
0.575796

>  <rmsd(smina/fragmenstein)>  (81) 
0.501

>  <ref_pdb>  (81) 
Z4245a

>  <inspiration_score>  (81) 
None

$$$$
P103617
     RDKit          3D

 26 29  0  0  0  0  0  0  0  0999 V2000
   -9.6519    3.8153   -4.4954 C   0  0  0  0  0  0  0  0  0  0  0  0
  -10.3680    2.7325   -5.2881 C   0  0  0  0  0  0  0  0  0  0  0  0
   -9.5378    2.0978   -6.4066 C   0  0  0  0  0  0  0  0  0  0  0  0
   -9.5131    2.9089   -7.6080 N   0  0  0  0  0  0  0  0  0  0  0  0
   -8.6295    4.0838   -7.5738 C   0  0  0  0  0  0  0  0  0  0  0  0
   -8.3319    4.3320   -9.0176 C   0  0  0  0  0  0  0  0  0  0  0  0
   -7.8762    5.4738   -9.6448 C   0  0  0  0  0  0  0  0  0  0  0  0
   -7.7567    5.4511  -11.0370 C   0  0  0  0  0  0  0  0  0  0  0  0
   -8.0871    4.2982  -11.7684 C   0  0  0  0  0  0  0  0  0  0  0  0
   -8.0334    4.2805  -13.1577 N   0  0  0  0  0  0  0  0  0  0  0  0
   -7.4691    5.3184  -14.1536 C   0  0  0  0  0  0  0  0  0  0  0  0
   -7.0306    6.3845  -13.9683 O   0  0  0  0  0  0  0  0  0  0  0  0
   -7.5668    4.8303  -15.5530 C   0  0  0  0  0  0  0  0  0  0  0  0
   -8.7484    4.2052  -16.0111 C   0  0  0  0  0  0  0  0  0  0  0  0
   -8.8561    3.8137  -17.3401 C   0  0  0  0  0  0  0  0  0  0  0  0
   -9.9708    3.2402  -17.7961 F   0  0  0  0  0  0  0  0  0  0  0  0
   -7.7905    4.0377  -18.1690 C   0  0  0  0  0  0  0  0  0  0  0  0
   -7.6188    3.7165  -19.5083 N   0  0  0  0  0  0  0  0  0  0  0  0
   -6.3638    4.1799  -19.9202 C   0  0  0  0  0  0  0  0  0  0  0  0
   -5.8619    4.0664  -21.0262 O   0  0  0  0  0  0  0  0  0  0  0  0
   -5.7622    4.7703  -18.7929 N   0  0  0  0  0  0  0  0  0  0  0  0
   -6.6381    4.6700  -17.7189 C   0  0  0  0  0  0  0  0  0  0  0  0
   -6.4905    5.0843  -16.4177 C   0  0  0  0  0  0  0  0  0  0  0  0
   -8.5198    3.1420  -11.1155 C   0  0  0  0  0  0  0  0  0  0  0  0
   -8.6385    3.1801   -9.7416 C   0  0  0  0  0  0  0  0  0  0  0  0
   -9.1141    2.1259   -8.7966 C   0  0  0  0  0  0  0  0  0  0  0  0
  1  2  1  0
  2  3  1  0
  3  4  1  0
  4  5  1  0
  5  6  1  0
  6  7  2  0
  7  8  1  0
  8  9  2  0
  9 10  1  0
 10 11  1  0
 11 12  2  0
 11 13  1  0
 13 14  2  0
 14 15  1  0
 15 16  1  0
 15 17  2  0
 17 18  1  0
 18 19  1  0
 19 20  2  0
 19 21  1  0
 21 22  1  0
 22 23  2  0
  9 24  1  0
 24 25  2  0
 25 26  1  0
 26  4  1  0
 25  6  1  0
 23 13  1  0
 22 17  1  0
M  END
>  <name>  (82) 
P103617

>  <alias>  (82) 
None

>  <smina_score_min>  (82) 
-9.242

>  <exports>  (82) 
['/opt/xchem-fragalysis-2/maxwin/BulkDock/OUTPUTS/openbind_xx01zvns2b_c2_elabs_1LOUTNY.sdf', '/opt/xchem-fragalysis-2/maxwin/BulkDock/OUTPUTS/openbind_xx01zvns2b_c2_elabs_1LSYIIV.sdf']

>  <tags>  (82) 
syndirella_placed,openbind_xx01zvns2b_c2_elabs,openbind_xx01zvns2b_c2_elabs_scored_6.2plus,syndirella_product,openbind_xx01zvns2b_c2_elabs_scored,openbind_xx01zvns2b_c2_elabs_scored_top80percent,BulkDock Fragalysis export

>  <subsites>  (82) 
1 - Z4590/B/203/1

>  <smiles>  (82) 
CCCN1Cc2ccc(NC(=O)c3cc(F)c4[nH]c(=O)[nH]c4c3)cc2C1

>  <HIPPO Pose ID>  (82) 
103617

>  <energy_score>  (82) 
-29.577336

>  <inchikey>  (82) 
WQFZBRAHHYCVHA-UHFFFAOYSA-N

>  <gnina_score_min>  (82) 
6.271

>  <gnina_score>  (82) 
6.236

>  <ref_mols>  (82) 
Z4245a

>  <HIPPO Compound ID>  (82) 
163440

>  <distance_score>  (82) 
0.605041

>  <rmsd(smina/fragmenstein)>  (82) 
0.258

>  <ref_pdb>  (82) 
Z4245a

>  <inspiration_score>  (82) 
None

$$$$
P103619
     RDKit          3D

 26 29  0  0  0  0  0  0  0  0999 V2000
   -9.8815    2.6196   -6.0805 C   0  0  0  0  0  0  0  0  0  0  0  0
   -8.8032    2.9683   -6.9875 N   0  0  0  0  0  0  0  0  0  0  0  0
   -8.9870    2.3321   -8.3182 C   0  0  0  0  0  0  0  0  0  0  0  0
   -8.6898    3.3952   -9.3258 C   0  0  0  0  0  0  0  0  0  0  0  0
   -8.6306    3.2842  -10.7146 C   0  0  0  0  0  0  0  0  0  0  0  0
   -8.2849    4.4151  -11.4625 C   0  0  0  0  0  0  0  0  0  0  0  0
   -8.1854    4.3244  -12.8558 N   0  0  0  0  0  0  0  0  0  0  0  0
   -7.6126    5.3270  -13.8924 C   0  0  0  0  0  0  0  0  0  0  0  0
   -7.2063    6.4146  -13.7506 O   0  0  0  0  0  0  0  0  0  0  0  0
   -7.6354    4.7969  -15.2869 C   0  0  0  0  0  0  0  0  0  0  0  0
   -8.7920    4.1746  -15.8002 C   0  0  0  0  0  0  0  0  0  0  0  0
   -8.8638    3.8339  -17.1503 C   0  0  0  0  0  0  0  0  0  0  0  0
   -9.9701    3.2918  -17.6628 F   0  0  0  0  0  0  0  0  0  0  0  0
   -7.7819    4.0907  -17.9488 C   0  0  0  0  0  0  0  0  0  0  0  0
   -7.5840    3.8335  -19.2999 N   0  0  0  0  0  0  0  0  0  0  0  0
   -6.3144    4.3004  -19.6620 C   0  0  0  0  0  0  0  0  0  0  0  0
   -5.7817    4.2222  -20.7567 O   0  0  0  0  0  0  0  0  0  0  0  0
   -5.7409    4.8449  -18.4950 N   0  0  0  0  0  0  0  0  0  0  0  0
   -6.6425    4.7022  -17.4449 C   0  0  0  0  0  0  0  0  0  0  0  0
   -6.5360    5.0742  -16.1229 C   0  0  0  0  0  0  0  0  0  0  0  0
   -8.0400    5.6311  -10.8060 C   0  0  0  0  0  0  0  0  0  0  0  0
   -8.1243    5.7329   -9.4109 C   0  0  0  0  0  0  0  0  0  0  0  0
   -8.4421    4.6026   -8.6747 C   0  0  0  0  0  0  0  0  0  0  0  0
   -8.4675    4.4036   -7.1742 C   0  0  0  0  0  0  0  0  0  0  0  0
   -9.3688    5.4004   -6.4235 C   0  0  0  0  0  0  0  0  0  0  0  0
   -7.0400    4.6513   -6.6416 C   0  0  0  0  0  0  0  0  0  0  0  0
  1  2  1  0
  2  3  1  0
  3  4  1  0
  4  5  2  0
  5  6  1  0
  6  7  1  0
  7  8  1  0
  8  9  2  0
  8 10  1  0
 10 11  2  0
 11 12  1  0
 12 13  1  0
 12 14  2  0
 14 15  1  0
 15 16  1  0
 16 17  2  0
 16 18  1  0
 18 19  1  0
 19 20  2  0
  6 21  2  0
 21 22  1  0
 22 23  2  0
 23 24  1  0
 24 25  1  0
 24 26  1  0
 24  2  1  0
 23  4  1  0
 20 10  1  0
 19 14  1  0
M  END
>  <name>  (83) 
P103619

>  <alias>  (83) 
None

>  <smina_score_min>  (83) 
-9.059

>  <exports>  (83) 
['/opt/xchem-fragalysis-2/maxwin/BulkDock/OUTPUTS/openbind_xx01zvns2b_c2_elabs_1LOUTNY.sdf', '/opt/xchem-fragalysis-2/maxwin/BulkDock/OUTPUTS/openbind_xx01zvns2b_c2_elabs_1LSYIIV.sdf']

>  <tags>  (83) 
syndirella_placed,openbind_xx01zvns2b_c2_elabs,openbind_xx01zvns2b_c2_elabs_scored_6.2plus,syndirella_product,openbind_xx01zvns2b_c2_elabs_scored,openbind_xx01zvns2b_c2_elabs_scored_top80percent,BulkDock Fragalysis export

>  <subsites>  (83) 
1 - Z4590/B/203/1

>  <smiles>  (83) 
CN1Cc2cc(NC(=O)c3cc(F)c4[nH]c(=O)[nH]c4c3)ccc2C1(C)C

>  <HIPPO Pose ID>  (83) 
103619

>  <energy_score>  (83) 
-75.531355

>  <inchikey>  (83) 
UBRPSYKWSSKJSE-UHFFFAOYSA-N

>  <gnina_score_min>  (83) 
6.29

>  <gnina_score>  (83) 
6.274

>  <ref_mols>  (83) 
Z4245a

>  <HIPPO Compound ID>  (83) 
163442

>  <distance_score>  (83) 
0.529969

>  <rmsd(smina/fragmenstein)>  (83) 
0.397

>  <ref_pdb>  (83) 
Z4245a

>  <inspiration_score>  (83) 
None

$$$$
P103620
     RDKit          3D

 26 29  0  0  0  0  0  0  0  0999 V2000
  -10.5183    2.7248   -5.3752 C   0  0  0  0  0  0  0  0  0  0  0  0
   -9.7010    1.9913   -6.4128 C   0  0  0  0  0  0  0  0  0  0  0  0
   -9.3895    2.8204   -7.5479 N   0  0  0  0  0  0  0  0  0  0  0  0
   -8.6083    4.0367   -7.4495 C   0  0  0  0  0  0  0  0  0  0  0  0
   -8.2938    4.3269   -8.8777 C   0  0  0  0  0  0  0  0  0  0  0  0
   -7.6605    5.4075   -9.4550 C   0  0  0  0  0  0  0  0  0  0  0  0
   -7.4761    5.3960  -10.8451 C   0  0  0  0  0  0  0  0  0  0  0  0
   -7.9207    4.3161  -11.6312 C   0  0  0  0  0  0  0  0  0  0  0  0
   -7.7301    4.2840  -13.0067 N   0  0  0  0  0  0  0  0  0  0  0  0
   -7.1228    5.3364  -13.9603 C   0  0  0  0  0  0  0  0  0  0  0  0
   -6.6173    6.3631  -13.7308 O   0  0  0  0  0  0  0  0  0  0  0  0
   -7.2743    4.9196  -15.3744 C   0  0  0  0  0  0  0  0  0  0  0  0
   -8.5414    4.5171  -15.8513 C   0  0  0  0  0  0  0  0  0  0  0  0
   -8.7149    4.2177  -17.1997 C   0  0  0  0  0  0  0  0  0  0  0  0
  -10.2705    3.9529  -17.8336 Cl  0  0  0  0  0  0  0  0  0  0  0  0
   -7.6161    4.2820  -18.0188 C   0  0  0  0  0  0  0  0  0  0  0  0
   -7.4894    4.0192  -19.3776 N   0  0  0  0  0  0  0  0  0  0  0  0
   -6.1867    4.3265  -19.7784 C   0  0  0  0  0  0  0  0  0  0  0  0
   -5.7120    4.2253  -20.8971 O   0  0  0  0  0  0  0  0  0  0  0  0
   -5.5037    4.7519  -18.6242 N   0  0  0  0  0  0  0  0  0  0  0  0
   -6.3809    4.7107  -17.5466 C   0  0  0  0  0  0  0  0  0  0  0  0
   -6.1728    5.0457  -16.2311 C   0  0  0  0  0  0  0  0  0  0  0  0
   -8.5713    3.2365  -11.0439 C   0  0  0  0  0  0  0  0  0  0  0  0
   -8.7410    3.2788   -9.6778 C   0  0  0  0  0  0  0  0  0  0  0  0
   -9.4106    2.3062   -8.8271 C   0  0  0  0  0  0  0  0  0  0  0  0
   -9.9002    1.2712   -9.2227 O   0  0  0  0  0  0  0  0  0  0  0  0
  1  2  1  0
  2  3  1  0
  3  4  1  0
  4  5  1  0
  5  6  2  0
  6  7  1  0
  7  8  2  0
  8  9  1  0
  9 10  1  0
 10 11  2  0
 10 12  1  0
 12 13  2  0
 13 14  1  0
 14 15  1  0
 14 16  2  0
 16 17  1  0
 17 18  1  0
 18 19  2  0
 18 20  1  0
 20 21  1  0
 21 22  2  0
  8 23  1  0
 23 24  2  0
 24 25  1  0
 25 26  2  0
 25  3  1  0
 24  5  1  0
 22 12  1  0
 21 16  1  0
M  END
>  <name>  (84) 
P103620

>  <alias>  (84) 
None

>  <smina_score_min>  (84) 
-8.489

>  <exports>  (84) 
['/opt/xchem-fragalysis-2/maxwin/BulkDock/OUTPUTS/openbind_xx01zvns2b_c2_elabs_1LOUTNY.sdf', '/opt/xchem-fragalysis-2/maxwin/BulkDock/OUTPUTS/openbind_xx01zvns2b_c2_elabs_1LSYIIV.sdf']

>  <tags>  (84) 
syndirella_placed,openbind_xx01zvns2b_c2_elabs,openbind_xx01zvns2b_c2_elabs_scored_6.2plus,syndirella_product,openbind_xx01zvns2b_c2_elabs_scored,openbind_xx01zvns2b_c2_elabs_scored_top80percent,BulkDock Fragalysis export

>  <subsites>  (84) 
1 - Z4590/B/203/1

>  <smiles>  (84) 
CCN1Cc2ccc(NC(=O)c3cc(Cl)c4[nH]c(=O)[nH]c4c3)cc2C1=O

>  <HIPPO Pose ID>  (84) 
103620

>  <energy_score>  (84) 
-12.526892

>  <inchikey>  (84) 
BLGFEBKRWCBXPH-UHFFFAOYSA-N

>  <gnina_score_min>  (84) 
6.233

>  <gnina_score>  (84) 
6.294

>  <ref_mols>  (84) 
Z4245a

>  <HIPPO Compound ID>  (84) 
163443

>  <distance_score>  (84) 
0.634575

>  <rmsd(smina/fragmenstein)>  (84) 
0.628

>  <ref_pdb>  (84) 
Z4245a

>  <inspiration_score>  (84) 
None

$$$$
P103637
     RDKit          3D

 27 30  0  0  0  0  0  0  0  0999 V2000
  -10.3459    1.6231   -5.8877 C   0  0  0  0  0  0  0  0  0  0  0  0
  -10.0161    3.0898   -6.0732 C   0  0  0  0  0  0  0  0  0  0  0  0
   -9.3968    3.6671   -4.7940 C   0  0  0  0  0  0  0  0  0  0  0  0
   -9.1753    3.3367   -7.2466 N   0  0  0  0  0  0  0  0  0  0  0  0
   -8.4512    4.5804   -7.3795 C   0  0  0  0  0  0  0  0  0  0  0  0
   -8.1347    4.6419   -8.8245 C   0  0  0  0  0  0  0  0  0  0  0  0
   -7.5073    5.6490   -9.5216 C   0  0  0  0  0  0  0  0  0  0  0  0
   -7.3769    5.4965  -10.9000 C   0  0  0  0  0  0  0  0  0  0  0  0
   -7.8730    4.3580  -11.5645 C   0  0  0  0  0  0  0  0  0  0  0  0
   -7.7345    4.2615  -12.9462 N   0  0  0  0  0  0  0  0  0  0  0  0
   -7.1018    5.2449  -13.9663 C   0  0  0  0  0  0  0  0  0  0  0  0
   -6.5316    6.2502  -13.7955 O   0  0  0  0  0  0  0  0  0  0  0  0
   -7.2897    4.8079  -15.3677 C   0  0  0  0  0  0  0  0  0  0  0  0
   -8.5666    4.4322  -15.8330 C   0  0  0  0  0  0  0  0  0  0  0  0
   -8.7602    4.1697  -17.1888 C   0  0  0  0  0  0  0  0  0  0  0  0
  -10.3276    3.9640  -17.8179 Cl  0  0  0  0  0  0  0  0  0  0  0  0
   -7.6713    4.2313  -18.0228 C   0  0  0  0  0  0  0  0  0  0  0  0
   -7.5615    3.9831  -19.3864 N   0  0  0  0  0  0  0  0  0  0  0  0
   -6.2574    4.2752  -19.7965 C   0  0  0  0  0  0  0  0  0  0  0  0
   -5.7904    4.1700  -20.9182 O   0  0  0  0  0  0  0  0  0  0  0  0
   -5.5607    4.6866  -18.6460 N   0  0  0  0  0  0  0  0  0  0  0  0
   -6.4267    4.6366  -17.5605 C   0  0  0  0  0  0  0  0  0  0  0  0
   -6.2001    4.9418  -16.2424 C   0  0  0  0  0  0  0  0  0  0  0  0
   -8.5098    3.3418  -10.8483 C   0  0  0  0  0  0  0  0  0  0  0  0
   -8.6185    3.5137   -9.4780 C   0  0  0  0  0  0  0  0  0  0  0  0
   -9.3089    2.6899   -8.4795 C   0  0  0  0  0  0  0  0  0  0  0  0
   -9.9265    1.6861   -8.7680 O   0  0  0  0  0  0  0  0  0  0  0  0
  1  2  1  0
  2  3  1  0
  2  4  1  0
  4  5  1  0
  5  6  1  0
  6  7  2  0
  7  8  1  0
  8  9  2  0
  9 10  1  0
 10 11  1  0
 11 12  2  0
 11 13  1  0
 13 14  2  0
 14 15  1  0
 15 16  1  0
 15 17  2  0
 17 18  1  0
 18 19  1  0
 19 20  2  0
 19 21  1  0
 21 22  1  0
 22 23  2  0
  9 24  1  0
 24 25  2  0
 25 26  1  0
 26 27  2  0
 26  4  1  0
 25  6  1  0
 23 13  1  0
 22 17  1  0
M  END
>  <name>  (85) 
P103637

>  <alias>  (85) 
None

>  <smina_score_min>  (85) 
-8.702

>  <exports>  (85) 
['/opt/xchem-fragalysis-2/maxwin/BulkDock/OUTPUTS/openbind_xx01zvns2b_c2_elabs_1LOUTNY.sdf', '/opt/xchem-fragalysis-2/maxwin/BulkDock/OUTPUTS/openbind_xx01zvns2b_c2_elabs_1LSYIIV.sdf']

>  <tags>  (85) 
syndirella_placed,openbind_xx01zvns2b_c2_elabs,openbind_xx01zvns2b_c2_elabs_scored_6.2plus,syndirella_product,openbind_xx01zvns2b_c2_elabs_scored,openbind_xx01zvns2b_c2_elabs_scored_top80percent,BulkDock Fragalysis export

>  <subsites>  (85) 
1 - Z4590/B/203/1

>  <smiles>  (85) 
CC(C)N1Cc2ccc(NC(=O)c3cc(Cl)c4[nH]c(=O)[nH]c4c3)cc2C1=O

>  <HIPPO Pose ID>  (85) 
103637

>  <energy_score>  (85) 
-5.542436

>  <inchikey>  (85) 
IKJRJSKPCSINAE-UHFFFAOYSA-N

>  <gnina_score_min>  (85) 
6.327

>  <gnina_score>  (85) 
6.322

>  <ref_mols>  (85) 
Z4245a

>  <HIPPO Compound ID>  (85) 
163470

>  <distance_score>  (85) 
0.697726

>  <rmsd(smina/fragmenstein)>  (85) 
0.372

>  <ref_pdb>  (85) 
Z4245a

>  <inspiration_score>  (85) 
None

$$$$
P103638
     RDKit          3D

 27 30  0  0  0  0  0  0  0  0999 V2000
   -6.6046    6.4038  -13.7727 O   0  0  0  0  0  0  0  0  0  0  0  0
   -7.0745    5.3636  -14.0131 C   0  0  0  0  0  0  0  0  0  0  0  0
   -7.6387    4.2793  -13.0717 N   0  0  0  0  0  0  0  0  0  0  0  0
   -7.8229    4.2866  -11.6963 C   0  0  0  0  0  0  0  0  0  0  0  0
   -7.5753    5.4336  -10.9245 C   0  0  0  0  0  0  0  0  0  0  0  0
   -7.8147    5.4338   -9.5479 C   0  0  0  0  0  0  0  0  0  0  0  0
   -8.2982    4.2739   -8.9785 C   0  0  0  0  0  0  0  0  0  0  0  0
   -8.5250    3.1274   -9.7448 C   0  0  0  0  0  0  0  0  0  0  0  0
   -8.2994    3.1161  -11.1038 C   0  0  0  0  0  0  0  0  0  0  0  0
   -9.0415    2.0399   -8.8612 C   0  0  0  0  0  0  0  0  0  0  0  0
   -9.5438    2.7962   -7.7085 N   0  0  0  0  0  0  0  0  0  0  0  0
   -9.6945    2.0055   -6.4981 C   0  0  0  0  0  0  0  0  0  0  0  0
  -10.5784    2.7344   -5.4934 C   0  0  0  0  0  0  0  0  0  0  0  0
   -9.8880    3.7199   -4.8589 F   0  0  0  0  0  0  0  0  0  0  0  0
  -11.0238    1.8886   -4.5435 F   0  0  0  0  0  0  0  0  0  0  0  0
   -8.6882    3.9869   -7.5653 C   0  0  0  0  0  0  0  0  0  0  0  0
   -7.2298    4.9475  -15.4244 C   0  0  0  0  0  0  0  0  0  0  0  0
   -8.5009    4.5289  -15.8783 C   0  0  0  0  0  0  0  0  0  0  0  0
   -8.6899    4.2159  -17.2202 C   0  0  0  0  0  0  0  0  0  0  0  0
  -10.2507    3.9335  -17.8312 Cl  0  0  0  0  0  0  0  0  0  0  0  0
   -7.6006    4.2777  -18.0518 C   0  0  0  0  0  0  0  0  0  0  0  0
   -7.4871    3.9940  -19.4076 N   0  0  0  0  0  0  0  0  0  0  0  0
   -6.1921    4.3074  -19.8279 C   0  0  0  0  0  0  0  0  0  0  0  0
   -5.7302    4.1936  -20.9508 O   0  0  0  0  0  0  0  0  0  0  0  0
   -5.4987    4.7543  -18.6884 N   0  0  0  0  0  0  0  0  0  0  0  0
   -6.3625    4.7221  -17.6001 C   0  0  0  0  0  0  0  0  0  0  0  0
   -6.1396    5.0756  -16.2922 C   0  0  0  0  0  0  0  0  0  0  0  0
  1  2  2  0
  2  3  1  0
  3  4  1  0
  4  5  2  0
  5  6  1  0
  6  7  2  0
  7  8  1  0
  8  9  2  0
  8 10  1  0
 10 11  1  0
 11 12  1  0
 12 13  1  0
 13 14  1  0
 13 15  1  0
 11 16  1  0
  2 17  1  0
 17 18  2  0
 18 19  1  0
 19 20  1  0
 19 21  2  0
 21 22  1  0
 22 23  1  0
 23 24  2  0
 23 25  1  0
 25 26  1  0
 26 27  2  0
  9  4  1  0
 27 17  1  0
 16  7  1  0
 26 21  1  0
M  END
>  <name>  (86) 
P103638

>  <alias>  (86) 
None

>  <smina_score_min>  (86) 
-9.181

>  <exports>  (86) 
['/opt/xchem-fragalysis-2/maxwin/BulkDock/OUTPUTS/openbind_xx01zvns2b_c2_elabs_1LOUTNY.sdf', '/opt/xchem-fragalysis-2/maxwin/BulkDock/OUTPUTS/openbind_xx01zvns2b_c2_elabs_1LSYIIV.sdf']

>  <tags>  (86) 
syndirella_placed,openbind_xx01zvns2b_c2_elabs,openbind_xx01zvns2b_c2_elabs_scored_6.2plus,syndirella_product,openbind_xx01zvns2b_c2_elabs_scored,openbind_xx01zvns2b_c2_elabs_scored_top80percent,BulkDock Fragalysis export

>  <subsites>  (86) 
1 - Z4590/B/203/1

>  <smiles>  (86) 
O=C(Nc1ccc2c(c1)CN(CC(F)F)C2)c1cc(Cl)c2[nH]c(=O)[nH]c2c1

>  <HIPPO Pose ID>  (86) 
103638

>  <energy_score>  (86) 
-34.17212

>  <inchikey>  (86) 
RXEOQEYDMYUKOC-UHFFFAOYSA-N

>  <gnina_score_min>  (86) 
6.433

>  <gnina_score>  (86) 
6.359

>  <ref_mols>  (86) 
Z4245a

>  <HIPPO Compound ID>  (86) 
163471

>  <distance_score>  (86) 
0.671747

>  <rmsd(smina/fragmenstein)>  (86) 
0.28

>  <ref_pdb>  (86) 
Z4245a

>  <inspiration_score>  (86) 
None

$$$$
P103639
     RDKit          3D

 27 30  0  0  0  0  0  0  0  0999 V2000
  -10.3718    1.1446   -6.4324 C   0  0  0  0  0  0  0  0  0  0  0  0
  -10.8918    2.0619   -5.3584 C   0  0  0  0  0  0  0  0  0  0  0  0
  -10.3481    3.4774   -5.3748 C   0  0  0  0  0  0  0  0  0  0  0  0
   -8.9097    3.6435   -5.8533 C   0  0  0  0  0  0  0  0  0  0  0  0
   -8.9013    4.1524   -7.2121 N   0  0  0  0  0  0  0  0  0  0  0  0
   -7.7854    5.0612   -7.4531 C   0  0  0  0  0  0  0  0  0  0  0  0
   -7.6924    5.0897   -8.9339 C   0  0  0  0  0  0  0  0  0  0  0  0
   -7.1080    6.0458   -9.7256 C   0  0  0  0  0  0  0  0  0  0  0  0
   -7.1516    5.8508  -11.0978 C   0  0  0  0  0  0  0  0  0  0  0  0
   -7.7530    4.7096  -11.6572 C   0  0  0  0  0  0  0  0  0  0  0  0
   -7.7499    4.5708  -13.0407 N   0  0  0  0  0  0  0  0  0  0  0  0
   -7.0464    5.4113  -14.1336 C   0  0  0  0  0  0  0  0  0  0  0  0
   -6.4229    6.3961  -14.0479 O   0  0  0  0  0  0  0  0  0  0  0  0
   -7.2654    4.8785  -15.4939 C   0  0  0  0  0  0  0  0  0  0  0  0
   -8.5535    4.4844  -15.9090 C   0  0  0  0  0  0  0  0  0  0  0  0
   -8.7790    4.1607  -17.2456 C   0  0  0  0  0  0  0  0  0  0  0  0
  -10.3647    3.9580  -17.8260 Cl  0  0  0  0  0  0  0  0  0  0  0  0
   -7.7102    4.1801  -18.1071 C   0  0  0  0  0  0  0  0  0  0  0  0
   -7.6319    3.8755  -19.4615 N   0  0  0  0  0  0  0  0  0  0  0  0
   -6.3417    4.1670  -19.9152 C   0  0  0  0  0  0  0  0  0  0  0  0
   -5.9037    4.0302  -21.0451 O   0  0  0  0  0  0  0  0  0  0  0  0
   -5.6183    4.6218  -18.7998 N   0  0  0  0  0  0  0  0  0  0  0  0
   -6.4556    4.6054  -17.6928 C   0  0  0  0  0  0  0  0  0  0  0  0
   -6.1956    4.9650  -16.3969 C   0  0  0  0  0  0  0  0  0  0  0  0
   -8.3502    3.7434  -10.8401 C   0  0  0  0  0  0  0  0  0  0  0  0
   -8.3172    3.9624   -9.4712 C   0  0  0  0  0  0  0  0  0  0  0  0
   -8.9058    3.1793   -8.3349 C   0  0  0  0  0  0  0  0  0  0  0  0
  1  2  1  0
  2  3  1  0
  3  4  1  0
  4  5  1  0
  5  6  1  0
  6  7  1  0
  7  8  2  0
  8  9  1  0
  9 10  2  0
 10 11  1  0
 11 12  1  0
 12 13  2  0
 12 14  1  0
 14 15  2  0
 15 16  1  0
 16 17  1  0
 16 18  2  0
 18 19  1  0
 19 20  1  0
 20 21  2  0
 20 22  1  0
 22 23  1  0
 23 24  2  0
 10 25  1  0
 25 26  2  0
 26 27  1  0
 27  5  1  0
 26  7  1  0
 24 14  1  0
 23 18  1  0
M  END
>  <name>  (87) 
P103639

>  <alias>  (87) 
None

>  <smina_score_min>  (87) 
-7.578

>  <exports>  (87) 
['/opt/xchem-fragalysis-2/maxwin/BulkDock/OUTPUTS/openbind_xx01zvns2b_c2_elabs_1LOUTNY.sdf', '/opt/xchem-fragalysis-2/maxwin/BulkDock/OUTPUTS/openbind_xx01zvns2b_c2_elabs_1LSYIIV.sdf']

>  <tags>  (87) 
syndirella_placed,openbind_xx01zvns2b_c2_elabs,openbind_xx01zvns2b_c2_elabs_scored_6.2plus,syndirella_product,openbind_xx01zvns2b_c2_elabs_scored,openbind_xx01zvns2b_c2_elabs_scored_top80percent,BulkDock Fragalysis export

>  <subsites>  (87) 
1 - Z4590/B/203/1

>  <smiles>  (87) 
CCCCN1Cc2ccc(NC(=O)c3cc(Cl)c4[nH]c(=O)[nH]c4c3)cc2C1

>  <HIPPO Pose ID>  (87) 
103639

>  <energy_score>  (87) 
-25.457986

>  <inchikey>  (87) 
BHPDPVQNPUEZEB-UHFFFAOYSA-N

>  <gnina_score_min>  (87) 
6.266

>  <gnina_score>  (87) 
6.208

>  <ref_mols>  (87) 
Z4245a

>  <HIPPO Compound ID>  (87) 
163472

>  <distance_score>  (87) 
1.036582

>  <rmsd(smina/fragmenstein)>  (87) 
0.685

>  <ref_pdb>  (87) 
Z4245a

>  <inspiration_score>  (87) 
None

$$$$
P103683
     RDKit          3D

 27 30  0  0  0  0  0  0  0  0999 V2000
   -9.0739    5.3690   -2.9879 C   0  0  0  0  0  0  0  0  0  0  0  0
   -9.1621    5.0295   -4.4697 C   0  0  0  0  0  0  0  0  0  0  0  0
   -9.1728    3.5174   -4.6918 C   0  0  0  0  0  0  0  0  0  0  0  0
   -9.6662    3.0165   -6.0641 C   0  0  0  0  0  0  0  0  0  0  0  0
   -8.7198    3.2350   -7.1464 N   0  0  0  0  0  0  0  0  0  0  0  0
   -8.4506    4.6340   -7.4608 C   0  0  0  0  0  0  0  0  0  0  0  0
   -8.2838    4.6888   -8.9343 C   0  0  0  0  0  0  0  0  0  0  0  0
   -7.8890    5.7707   -9.6911 C   0  0  0  0  0  0  0  0  0  0  0  0
   -7.8366    5.6111  -11.0695 C   0  0  0  0  0  0  0  0  0  0  0  0
   -8.1845    4.3904  -11.6720 C   0  0  0  0  0  0  0  0  0  0  0  0
   -8.1292    4.2878  -13.0622 N   0  0  0  0  0  0  0  0  0  0  0  0
   -7.5540    5.2632  -14.1217 C   0  0  0  0  0  0  0  0  0  0  0  0
   -7.1072    6.3373  -13.9998 O   0  0  0  0  0  0  0  0  0  0  0  0
   -7.6275    4.7311  -15.5037 C   0  0  0  0  0  0  0  0  0  0  0  0
   -8.8043    4.1194  -15.9794 C   0  0  0  0  0  0  0  0  0  0  0  0
   -8.9046    3.7622  -17.3205 C   0  0  0  0  0  0  0  0  0  0  0  0
  -10.0241    3.2199  -17.8017 F   0  0  0  0  0  0  0  0  0  0  0  0
   -7.8341    3.9976  -18.1411 C   0  0  0  0  0  0  0  0  0  0  0  0
   -7.6578    3.7077  -19.4873 N   0  0  0  0  0  0  0  0  0  0  0  0
   -6.3955    4.1679  -19.8814 C   0  0  0  0  0  0  0  0  0  0  0  0
   -5.8847    4.0688  -20.9848 O   0  0  0  0  0  0  0  0  0  0  0  0
   -5.7989    4.7328  -18.7383 N   0  0  0  0  0  0  0  0  0  0  0  0
   -6.6813    4.6108  -17.6716 C   0  0  0  0  0  0  0  0  0  0  0  0
   -6.5431    4.9949  -16.3607 C   0  0  0  0  0  0  0  0  0  0  0  0
   -8.5947    3.3021  -10.8861 C   0  0  0  0  0  0  0  0  0  0  0  0
   -8.6338    3.4691   -9.5068 C   0  0  0  0  0  0  0  0  0  0  0  0
   -9.0606    2.5300   -8.4130 C   0  0  0  0  0  0  0  0  0  0  0  0
  1  2  1  0
  2  3  1  0
  3  4  1  0
  4  5  1  0
  5  6  1  0
  6  7  1  0
  7  8  2  0
  8  9  1  0
  9 10  2  0
 10 11  1  0
 11 12  1  0
 12 13  2  0
 12 14  1  0
 14 15  2  0
 15 16  1  0
 16 17  1  0
 16 18  2  0
 18 19  1  0
 19 20  1  0
 20 21  2  0
 20 22  1  0
 22 23  1  0
 23 24  2  0
 10 25  1  0
 25 26  2  0
 26 27  1  0
 27  5  1  0
 26  7  1  0
 24 14  1  0
 23 18  1  0
M  END
>  <name>  (88) 
P103683

>  <alias>  (88) 
None

>  <smina_score_min>  (88) 
-8.47

>  <exports>  (88) 
['/opt/xchem-fragalysis-2/maxwin/BulkDock/OUTPUTS/openbind_xx01zvns2b_c2_elabs_1LOUTNY.sdf', '/opt/xchem-fragalysis-2/maxwin/BulkDock/OUTPUTS/openbind_xx01zvns2b_c2_elabs_1LSYIIV.sdf']

>  <tags>  (88) 
syndirella_placed,openbind_xx01zvns2b_c2_elabs,openbind_xx01zvns2b_c2_elabs_scored_6.2plus,syndirella_product,openbind_xx01zvns2b_c2_elabs_scored,openbind_xx01zvns2b_c2_elabs_scored_top80percent,BulkDock Fragalysis export

>  <subsites>  (88) 
1 - Z4590/B/203/1

>  <smiles>  (88) 
CCCCN1Cc2ccc(NC(=O)c3cc(F)c4[nH]c(=O)[nH]c4c3)cc2C1

>  <HIPPO Pose ID>  (88) 
103683

>  <energy_score>  (88) 
-38.499674

>  <inchikey>  (88) 
OSAOKBVPXYHYHP-UHFFFAOYSA-N

>  <gnina_score_min>  (88) 
6.299

>  <gnina_score>  (88) 
6.23

>  <ref_mols>  (88) 
Z4245a

>  <HIPPO Compound ID>  (88) 
163537

>  <distance_score>  (88) 
0.630684

>  <rmsd(smina/fragmenstein)>  (88) 
0.338

>  <ref_pdb>  (88) 
Z4245a

>  <inspiration_score>  (88) 
None

$$$$
P103686
     RDKit          3D

 27 30  0  0  0  0  0  0  0  0999 V2000
   -8.9341    4.3246   -2.2032 C   0  0  0  0  0  0  0  0  0  0  0  0
   -9.5900    4.3134   -3.5725 C   0  0  0  0  0  0  0  0  0  0  0  0
   -8.6423    3.8630   -4.6743 C   0  0  0  0  0  0  0  0  0  0  0  0
   -9.3998    3.3332   -5.9131 C   0  0  0  0  0  0  0  0  0  0  0  0
   -8.5427    3.4344   -7.0828 N   0  0  0  0  0  0  0  0  0  0  0  0
   -8.2582    4.8277   -7.4359 C   0  0  0  0  0  0  0  0  0  0  0  0
   -8.1501    4.8419   -8.9114 C   0  0  0  0  0  0  0  0  0  0  0  0
   -7.7112    5.8863   -9.6940 C   0  0  0  0  0  0  0  0  0  0  0  0
   -7.6609    5.6850  -11.0633 C   0  0  0  0  0  0  0  0  0  0  0  0
   -8.0635    4.4657  -11.6314 C   0  0  0  0  0  0  0  0  0  0  0  0
   -7.9615    4.3179  -13.0130 N   0  0  0  0  0  0  0  0  0  0  0  0
   -7.3223    5.2465  -14.0826 C   0  0  0  0  0  0  0  0  0  0  0  0
   -6.7155    6.2405  -13.9596 O   0  0  0  0  0  0  0  0  0  0  0  0
   -7.4905    4.7571  -15.4703 C   0  0  0  0  0  0  0  0  0  0  0  0
   -6.4487    4.9853  -16.3815 C   0  0  0  0  0  0  0  0  0  0  0  0
   -6.6743    4.5978  -17.6776 C   0  0  0  0  0  0  0  0  0  0  0  0
   -5.8375    4.6759  -18.7819 N   0  0  0  0  0  0  0  0  0  0  0  0
   -6.4962    4.1070  -19.8843 C   0  0  0  0  0  0  0  0  0  0  0  0
   -6.0307    3.9615  -21.0027 O   0  0  0  0  0  0  0  0  0  0  0  0
   -7.7604    3.7020  -19.4315 N   0  0  0  0  0  0  0  0  0  0  0  0
   -7.8731    4.0151  -18.0846 C   0  0  0  0  0  0  0  0  0  0  0  0
   -8.9203    3.8145  -17.2231 C   0  0  0  0  0  0  0  0  0  0  0  0
   -8.7044    4.1913  -15.8977 C   0  0  0  0  0  0  0  0  0  0  0  0
   -9.6935    4.0312  -15.0148 F   0  0  0  0  0  0  0  0  0  0  0  0
   -8.5475    3.4238  -10.8205 C   0  0  0  0  0  0  0  0  0  0  0  0
   -8.5720    3.6256   -9.4448 C   0  0  0  0  0  0  0  0  0  0  0  0
   -9.0119    2.7352   -8.3109 C   0  0  0  0  0  0  0  0  0  0  0  0
  1  2  1  0
  2  3  1  0
  3  4  1  0
  4  5  1  0
  5  6  1  0
  6  7  1  0
  7  8  2  0
  8  9  1  0
  9 10  2  0
 10 11  1  0
 11 12  1  0
 12 13  2  0
 12 14  1  0
 14 15  2  0
 15 16  1  0
 16 17  1  0
 17 18  1  0
 18 19  2  0
 18 20  1  0
 20 21  1  0
 21 22  1  0
 22 23  2  0
 23 24  1  0
 10 25  1  0
 25 26  2  0
 26 27  1  0
 27  5  1  0
 26  7  1  0
 23 14  1  0
 21 16  2  0
M  END
>  <name>  (89) 
P103686

>  <alias>  (89) 
None

>  <smina_score_min>  (89) 
-8.603

>  <exports>  (89) 
['/opt/xchem-fragalysis-2/maxwin/BulkDock/OUTPUTS/openbind_xx01zvns2b_c2_elabs_1LOUTNY.sdf', '/opt/xchem-fragalysis-2/maxwin/BulkDock/OUTPUTS/openbind_xx01zvns2b_c2_elabs_1LSYIIV.sdf']

>  <tags>  (89) 
syndirella_placed,openbind_xx01zvns2b_c2_elabs,openbind_xx01zvns2b_c2_elabs_scored_6.2plus,syndirella_product,openbind_xx01zvns2b_c2_elabs_scored,openbind_xx01zvns2b_c2_elabs_scored_top80percent,BulkDock Fragalysis export

>  <subsites>  (89) 
1 - Z4590/B/203/1

>  <smiles>  (89) 
CCCCN1Cc2ccc(NC(=O)c3cc4[nH]c(=O)[nH]c4cc3F)cc2C1

>  <HIPPO Pose ID>  (89) 
103686

>  <energy_score>  (89) 
-15.833888

>  <inchikey>  (89) 
WDMNBYOTKVGKBX-UHFFFAOYSA-N

>  <gnina_score_min>  (89) 
6.219

>  <gnina_score>  (89) 
5.981

>  <ref_mols>  (89) 
Z4245a

>  <HIPPO Compound ID>  (89) 
163540

>  <distance_score>  (89) 
0.714342

>  <rmsd(smina/fragmenstein)>  (89) 
0.841

>  <ref_pdb>  (89) 
Z4245a

>  <inspiration_score>  (89) 
None

$$$$
P103698
     RDKit          3D

 27 30  0  0  0  0  0  0  0  0999 V2000
   -6.9178    6.2971  -13.9521 O   0  0  0  0  0  0  0  0  0  0  0  0
   -7.4529    5.2673  -14.0952 C   0  0  0  0  0  0  0  0  0  0  0  0
   -8.0856    4.3107  -13.0528 N   0  0  0  0  0  0  0  0  0  0  0  0
   -8.1065    4.3751  -11.6599 C   0  0  0  0  0  0  0  0  0  0  0  0
   -7.6121    5.5172  -11.0053 C   0  0  0  0  0  0  0  0  0  0  0  0
   -7.6250    5.6154   -9.6149 C   0  0  0  0  0  0  0  0  0  0  0  0
   -8.1530    4.5622   -8.9015 C   0  0  0  0  0  0  0  0  0  0  0  0
   -8.6592    3.4271   -9.5396 C   0  0  0  0  0  0  0  0  0  0  0  0
   -8.6323    3.3086  -10.9211 C   0  0  0  0  0  0  0  0  0  0  0  0
   -9.2016    2.4957   -8.4951 C   0  0  0  0  0  0  0  0  0  0  0  0
   -9.3196    3.3685   -7.2966 N   0  0  0  0  0  0  0  0  0  0  0  0
   -9.2629    2.6444   -6.0276 C   0  0  0  0  0  0  0  0  0  0  0  0
  -10.5367    1.8619   -5.7029 C   0  0  0  0  0  0  0  0  0  0  0  0
  -10.7394    0.8999   -6.6302 F   0  0  0  0  0  0  0  0  0  0  0  0
  -11.6107    2.6939   -5.7193 F   0  0  0  0  0  0  0  0  0  0  0  0
   -8.3021    4.4108   -7.4262 C   0  0  0  0  0  0  0  0  0  0  0  0
   -7.5790    4.7657  -15.4891 C   0  0  0  0  0  0  0  0  0  0  0  0
   -8.7727    4.1730  -15.9509 C   0  0  0  0  0  0  0  0  0  0  0  0
   -8.8957    3.8102  -17.2897 C   0  0  0  0  0  0  0  0  0  0  0  0
  -10.0295    3.2819  -17.7534 F   0  0  0  0  0  0  0  0  0  0  0  0
   -7.8317    4.0238  -18.1246 C   0  0  0  0  0  0  0  0  0  0  0  0
   -7.6726    3.7212  -19.4703 N   0  0  0  0  0  0  0  0  0  0  0  0
   -6.4081    4.1612  -19.8804 C   0  0  0  0  0  0  0  0  0  0  0  0
   -5.9087    4.0471  -20.9876 O   0  0  0  0  0  0  0  0  0  0  0  0
   -5.7926    4.7264  -18.7478 N   0  0  0  0  0  0  0  0  0  0  0  0
   -6.6654    4.6238  -17.6715 C   0  0  0  0  0  0  0  0  0  0  0  0
   -6.5042    5.0105  -16.3638 C   0  0  0  0  0  0  0  0  0  0  0  0
  1  2  2  0
  2  3  1  0
  3  4  1  0
  4  5  2  0
  5  6  1  0
  6  7  2  0
  7  8  1  0
  8  9  2  0
  8 10  1  0
 10 11  1  0
 11 12  1  0
 12 13  1  0
 13 14  1  0
 13 15  1  0
 11 16  1  0
  2 17  1  0
 17 18  2  0
 18 19  1  0
 19 20  1  0
 19 21  2  0
 21 22  1  0
 22 23  1  0
 23 24  2  0
 23 25  1  0
 25 26  1  0
 26 27  2  0
  9  4  1  0
 27 17  1  0
 16  7  1  0
 26 21  1  0
M  END
>  <name>  (90) 
P103698

>  <alias>  (90) 
None

>  <smina_score_min>  (90) 
-9.467

>  <exports>  (90) 
['/opt/xchem-fragalysis-2/maxwin/BulkDock/OUTPUTS/openbind_xx01zvns2b_c2_elabs_1LOUTNY.sdf', '/opt/xchem-fragalysis-2/maxwin/BulkDock/OUTPUTS/openbind_xx01zvns2b_c2_elabs_1LSYIIV.sdf']

>  <tags>  (90) 
syndirella_placed,openbind_xx01zvns2b_c2_elabs,openbind_xx01zvns2b_c2_elabs_scored_6.2plus,syndirella_product,openbind_xx01zvns2b_c2_elabs_scored,openbind_xx01zvns2b_c2_elabs_scored_top80percent,BulkDock Fragalysis export

>  <subsites>  (90) 
1 - Z4590/B/203/1

>  <smiles>  (90) 
O=C(Nc1ccc2c(c1)CN(CC(F)F)C2)c1cc(F)c2[nH]c(=O)[nH]c2c1

>  <HIPPO Pose ID>  (90) 
103698

>  <energy_score>  (90) 
-42.934458

>  <inchikey>  (90) 
BBBHKKINNKLRLF-UHFFFAOYSA-N

>  <gnina_score_min>  (90) 
6.302

>  <gnina_score>  (90) 
6.107

>  <ref_mols>  (90) 
Z4245a

>  <HIPPO Compound ID>  (90) 
163553

>  <distance_score>  (90) 
0.636094

>  <rmsd(smina/fragmenstein)>  (90) 
0.683

>  <ref_pdb>  (90) 
Z4245a

>  <inspiration_score>  (90) 
None

$$$$
P103715
     RDKit          3D

 28 31  0  0  0  0  0  0  0  0999 V2000
   -8.6568    3.9778   -3.6792 C   0  0  0  0  0  0  0  0  0  0  0  0
   -9.9291    4.0382   -4.5053 C   0  0  0  0  0  0  0  0  0  0  0  0
  -10.2744    2.7952   -5.3248 C   0  0  0  0  0  0  0  0  0  0  0  0
   -9.1766    2.2518   -6.2308 C   0  0  0  0  0  0  0  0  0  0  0  0
   -9.0446    2.9609   -7.4756 N   0  0  0  0  0  0  0  0  0  0  0  0
   -9.1009    2.2304   -8.7314 C   0  0  0  0  0  0  0  0  0  0  0  0
   -8.6602    3.2575   -9.7131 C   0  0  0  0  0  0  0  0  0  0  0  0
   -8.6117    3.2024  -11.0925 C   0  0  0  0  0  0  0  0  0  0  0  0
   -8.1378    4.3265  -11.7790 C   0  0  0  0  0  0  0  0  0  0  0  0
   -8.0820    4.2791  -13.1665 N   0  0  0  0  0  0  0  0  0  0  0  0
   -7.5601    5.3174  -14.1869 C   0  0  0  0  0  0  0  0  0  0  0  0
   -7.1668    6.4052  -14.0260 O   0  0  0  0  0  0  0  0  0  0  0  0
   -7.6315    4.8083  -15.5777 C   0  0  0  0  0  0  0  0  0  0  0  0
   -8.7995    4.1726  -16.0493 C   0  0  0  0  0  0  0  0  0  0  0  0
   -8.8850    3.7800  -17.3790 C   0  0  0  0  0  0  0  0  0  0  0  0
   -9.9893    3.1978  -17.8482 F   0  0  0  0  0  0  0  0  0  0  0  0
   -7.8111    4.0128  -18.1945 C   0  0  0  0  0  0  0  0  0  0  0  0
   -7.6217    3.6962  -19.5320 N   0  0  0  0  0  0  0  0  0  0  0  0
   -6.3668    4.1726  -19.9293 C   0  0  0  0  0  0  0  0  0  0  0  0
   -5.8535    4.0686  -21.0307 O   0  0  0  0  0  0  0  0  0  0  0  0
   -5.7821    4.7637  -18.7934 N   0  0  0  0  0  0  0  0  0  0  0  0
   -6.6695    4.6534  -17.7301 C   0  0  0  0  0  0  0  0  0  0  0  0
   -6.5439    5.0688  -16.4275 C   0  0  0  0  0  0  0  0  0  0  0  0
   -7.7261    5.4774  -11.0808 C   0  0  0  0  0  0  0  0  0  0  0  0
   -7.7777    5.5245   -9.6885 C   0  0  0  0  0  0  0  0  0  0  0  0
   -8.2445    4.4024   -9.0402 C   0  0  0  0  0  0  0  0  0  0  0  0
   -8.4026    4.1773   -7.6053 C   0  0  0  0  0  0  0  0  0  0  0  0
   -8.0019    4.9485   -6.7533 O   0  0  0  0  0  0  0  0  0  0  0  0
  1  2  1  0
  2  3  1  0
  3  4  1  0
  4  5  1  0
  5  6  1  0
  6  7  1  0
  7  8  2  0
  8  9  1  0
  9 10  1  0
 10 11  1  0
 11 12  2  0
 11 13  1  0
 13 14  2  0
 14 15  1  0
 15 16  1  0
 15 17  2  0
 17 18  1  0
 18 19  1  0
 19 20  2  0
 19 21  1  0
 21 22  1  0
 22 23  2  0
  9 24  2  0
 24 25  1  0
 25 26  2  0
 26 27  1  0
 27 28  2  0
 27  5  1  0
 26  7  1  0
 23 13  1  0
 22 17  1  0
M  END
>  <name>  (91) 
P103715

>  <alias>  (91) 
None

>  <smina_score_min>  (91) 
-8.959

>  <exports>  (91) 
['/opt/xchem-fragalysis-2/maxwin/BulkDock/OUTPUTS/openbind_xx01zvns2b_c2_elabs_1LOUTNY.sdf', '/opt/xchem-fragalysis-2/maxwin/BulkDock/OUTPUTS/openbind_xx01zvns2b_c2_elabs_1LSYIIV.sdf']

>  <tags>  (91) 
syndirella_placed,openbind_xx01zvns2b_c2_elabs,openbind_xx01zvns2b_c2_elabs_scored_6.2plus,syndirella_product,openbind_xx01zvns2b_c2_elabs_scored,openbind_xx01zvns2b_c2_elabs_scored_top80percent,BulkDock Fragalysis export

>  <subsites>  (91) 
1 - Z4590/B/203/1

>  <smiles>  (91) 
CCCCN1Cc2cc(NC(=O)c3cc(F)c4[nH]c(=O)[nH]c4c3)ccc2C1=O

>  <HIPPO Pose ID>  (91) 
103715

>  <energy_score>  (91) 
-12.224295

>  <inchikey>  (91) 
OCOPZAIJERFZGK-UHFFFAOYSA-N

>  <gnina_score_min>  (91) 
6.324

>  <gnina_score>  (91) 
6.285

>  <ref_mols>  (91) 
Z4245a

>  <HIPPO Compound ID>  (91) 
163574

>  <distance_score>  (91) 
0.615635

>  <rmsd(smina/fragmenstein)>  (91) 
0.352

>  <ref_pdb>  (91) 
Z4245a

>  <inspiration_score>  (91) 
None

$$$$
P103718
     RDKit          3D

 28 31  0  0  0  0  0  0  0  0999 V2000
   -9.2020    5.0800   -2.4318 C   0  0  0  0  0  0  0  0  0  0  0  0
   -9.5087    3.9678   -3.4232 C   0  0  0  0  0  0  0  0  0  0  0  0
   -9.1574    4.3624   -4.8460 C   0  0  0  0  0  0  0  0  0  0  0  0
   -9.2323    3.1989   -5.8647 C   0  0  0  0  0  0  0  0  0  0  0  0
   -9.2281    3.7296   -7.2202 N   0  0  0  0  0  0  0  0  0  0  0  0
   -8.1936    4.7380   -7.4491 C   0  0  0  0  0  0  0  0  0  0  0  0
   -8.0576    4.7660   -8.9215 C   0  0  0  0  0  0  0  0  0  0  0  0
   -7.5134    5.7736   -9.6812 C   0  0  0  0  0  0  0  0  0  0  0  0
   -7.4643    5.5791  -11.0492 C   0  0  0  0  0  0  0  0  0  0  0  0
   -7.9378    4.3917  -11.6341 C   0  0  0  0  0  0  0  0  0  0  0  0
   -7.8145    4.2557  -13.0150 N   0  0  0  0  0  0  0  0  0  0  0  0
   -7.1861    5.2068  -14.0697 C   0  0  0  0  0  0  0  0  0  0  0  0
   -6.6068    6.2145  -13.9326 O   0  0  0  0  0  0  0  0  0  0  0  0
   -7.3505    4.7308  -15.4627 C   0  0  0  0  0  0  0  0  0  0  0  0
   -8.5630    4.1630  -15.8989 C   0  0  0  0  0  0  0  0  0  0  0  0
   -8.7263    3.8429  -17.2449 C   0  0  0  0  0  0  0  0  0  0  0  0
   -9.9025    3.3455  -17.6977 O   0  0  0  0  0  0  0  0  0  0  0  0
  -10.7343    4.4298  -18.1069 C   0  0  0  0  0  0  0  0  0  0  0  0
   -7.6757    4.0532  -18.1008 C   0  0  0  0  0  0  0  0  0  0  0  0
   -7.5592    3.7746  -19.4559 N   0  0  0  0  0  0  0  0  0  0  0  0
   -6.3053    4.2131  -19.8948 C   0  0  0  0  0  0  0  0  0  0  0  0
   -5.8387    4.1124  -21.0176 O   0  0  0  0  0  0  0  0  0  0  0  0
   -5.6541    4.7570  -18.7715 N   0  0  0  0  0  0  0  0  0  0  0  0
   -6.4948    4.6363  -17.6717 C   0  0  0  0  0  0  0  0  0  0  0  0
   -6.2984    4.9926  -16.3620 C   0  0  0  0  0  0  0  0  0  0  0  0
   -8.5037    3.3763  -10.8420 C   0  0  0  0  0  0  0  0  0  0  0  0
   -8.5655    3.5854   -9.4699 C   0  0  0  0  0  0  0  0  0  0  0  0
   -9.1108    2.7470   -8.3361 C   0  0  0  0  0  0  0  0  0  0  0  0
  1  2  1  0
  2  3  1  0
  3  4  1  0
  4  5  1  0
  5  6  1  0
  6  7  1  0
  7  8  2  0
  8  9  1  0
  9 10  2  0
 10 11  1  0
 11 12  1  0
 12 13  2  0
 12 14  1  0
 14 15  2  0
 15 16  1  0
 16 17  1  0
 17 18  1  0
 16 19  2  0
 19 20  1  0
 20 21  1  0
 21 22  2  0
 21 23  1  0
 23 24  1  0
 24 25  2  0
 10 26  1  0
 26 27  2  0
 27 28  1  0
 28  5  1  0
 27  7  1  0
 25 14  1  0
 24 19  1  0
M  END
>  <name>  (92) 
P103718

>  <alias>  (92) 
None

>  <smina_score_min>  (92) 
-8.148

>  <exports>  (92) 
['/opt/xchem-fragalysis-2/maxwin/BulkDock/OUTPUTS/openbind_xx01zvns2b_c2_elabs_1LOUTNY.sdf', '/opt/xchem-fragalysis-2/maxwin/BulkDock/OUTPUTS/openbind_xx01zvns2b_c2_elabs_1LSYIIV.sdf']

>  <tags>  (92) 
syndirella_placed,openbind_xx01zvns2b_c2_elabs,openbind_xx01zvns2b_c2_elabs_scored_6.2plus,syndirella_product,openbind_xx01zvns2b_c2_elabs_scored,openbind_xx01zvns2b_c2_elabs_scored_top80percent,BulkDock Fragalysis export

>  <subsites>  (92) 
1 - Z4590/B/203/1

>  <smiles>  (92) 
CCCCN1Cc2ccc(NC(=O)c3cc(OC)c4[nH]c(=O)[nH]c4c3)cc2C1

>  <HIPPO Pose ID>  (92) 
103718

>  <energy_score>  (92) 
-15.080458

>  <inchikey>  (92) 
IYGSQXOKTPEDPF-UHFFFAOYSA-N

>  <gnina_score_min>  (92) 
6.219

>  <gnina_score>  (92) 
6.18

>  <ref_mols>  (92) 
Z4245a

>  <HIPPO Compound ID>  (92) 
163578

>  <distance_score>  (92) 
0.761131

>  <rmsd(smina/fragmenstein)>  (92) 
0.472

>  <ref_pdb>  (92) 
Z4245a

>  <inspiration_score>  (92) 
None

$$$$
P103737
     RDKit          3D

 28 31  0  0  0  0  0  0  0  0999 V2000
   -7.4032    6.4151  -13.9606 O   0  0  0  0  0  0  0  0  0  0  0  0
   -7.6329    5.2794  -14.1089 C   0  0  0  0  0  0  0  0  0  0  0  0
   -8.0200    4.1906  -13.0778 N   0  0  0  0  0  0  0  0  0  0  0  0
   -8.1085    4.2507  -11.6888 C   0  0  0  0  0  0  0  0  0  0  0  0
   -7.8826    5.4575  -11.0088 C   0  0  0  0  0  0  0  0  0  0  0  0
   -8.0006    5.5284   -9.6205 C   0  0  0  0  0  0  0  0  0  0  0  0
   -8.3307    4.3750   -8.9350 C   0  0  0  0  0  0  0  0  0  0  0  0
   -8.5393    3.1711   -9.5967 C   0  0  0  0  0  0  0  0  0  0  0  0
   -8.4415    3.0921  -10.9774 C   0  0  0  0  0  0  0  0  0  0  0  0
   -8.8818    2.1053   -8.6039 C   0  0  0  0  0  0  0  0  0  0  0  0
   -8.8240    2.7703   -7.2770 N   0  0  0  0  0  0  0  0  0  0  0  0
   -9.9717    2.4265   -6.4272 C   0  0  0  0  0  0  0  0  0  0  0  0
  -10.2384    3.2415   -5.1554 C   0  0  0  0  0  0  0  0  0  0  0  0
   -9.1721    3.3559   -4.3373 F   0  0  0  0  0  0  0  0  0  0  0  0
  -11.2593    2.6980   -4.4563 F   0  0  0  0  0  0  0  0  0  0  0  0
  -10.6299    4.5079   -5.4613 F   0  0  0  0  0  0  0  0  0  0  0  0
   -8.5760    4.2033   -7.4768 C   0  0  0  0  0  0  0  0  0  0  0  0
   -7.6667    4.7563  -15.4913 C   0  0  0  0  0  0  0  0  0  0  0  0
   -8.8400    4.1291  -15.9750 C   0  0  0  0  0  0  0  0  0  0  0  0
   -8.9529    3.7479  -17.3157 C   0  0  0  0  0  0  0  0  0  0  0  0
   -7.8682    3.9946  -18.1190 C   0  0  0  0  0  0  0  0  0  0  0  0
   -7.6866    3.6986  -19.4614 N   0  0  0  0  0  0  0  0  0  0  0  0
   -6.4217    4.1575  -19.8571 C   0  0  0  0  0  0  0  0  0  0  0  0
   -5.9139    4.0480  -20.9609 O   0  0  0  0  0  0  0  0  0  0  0  0
   -5.8283    4.7297  -18.7195 N   0  0  0  0  0  0  0  0  0  0  0  0
   -6.7147    4.6163  -17.6514 C   0  0  0  0  0  0  0  0  0  0  0  0
   -6.5891    5.0092  -16.3414 C   0  0  0  0  0  0  0  0  0  0  0  0
   -5.4700    5.6122  -15.9182 F   0  0  0  0  0  0  0  0  0  0  0  0
  1  2  2  0
  2  3  1  0
  3  4  1  0
  4  5  2  0
  5  6  1  0
  6  7  2  0
  7  8  1  0
  8  9  2  0
  8 10  1  0
 10 11  1  0
 11 12  1  0
 12 13  1  0
 13 14  1  0
 13 15  1  0
 13 16  1  0
 11 17  1  0
  2 18  1  0
 18 19  2  0
 19 20  1  0
 20 21  2  0
 21 22  1  0
 22 23  1  0
 23 24  2  0
 23 25  1  0
 25 26  1  0
 26 27  2  0
 27 28  1  0
  9  4  1  0
 27 18  1  0
 17  7  1  0
 26 21  1  0
M  END
>  <name>  (93) 
P103737

>  <alias>  (93) 
None

>  <smina_score_min>  (93) 
-9.425

>  <exports>  (93) 
['/opt/xchem-fragalysis-2/maxwin/BulkDock/OUTPUTS/openbind_xx01zvns2b_c2_elabs_1LOUTNY.sdf', '/opt/xchem-fragalysis-2/maxwin/BulkDock/OUTPUTS/openbind_xx01zvns2b_c2_elabs_1LSYIIV.sdf']

>  <tags>  (93) 
syndirella_placed,openbind_xx01zvns2b_c2_elabs,openbind_xx01zvns2b_c2_elabs_scored_6.2plus,syndirella_product,openbind_xx01zvns2b_c2_elabs_scored,openbind_xx01zvns2b_c2_elabs_scored_top80percent,BulkDock Fragalysis export

>  <subsites>  (93) 
1 - Z4590/B/203/1

>  <smiles>  (93) 
O=C(Nc1ccc2c(c1)CN(CC(F)(F)F)C2)c1ccc2[nH]c(=O)[nH]c2c1F

>  <HIPPO Pose ID>  (93) 
103737

>  <energy_score>  (93) 
-29.87944

>  <inchikey>  (93) 
LSDUXSDXSNACOC-UHFFFAOYSA-N

>  <gnina_score_min>  (93) 
6.204

>  <gnina_score>  (93) 
6.13

>  <ref_mols>  (93) 
Z4245a

>  <HIPPO Compound ID>  (93) 
163600

>  <distance_score>  (93) 
0.549112

>  <rmsd(smina/fragmenstein)>  (93) 
0.309

>  <ref_pdb>  (93) 
Z4245a

>  <inspiration_score>  (93) 
None

$$$$
P103775
     RDKit          3D

 28 31  0  0  0  0  0  0  0  0999 V2000
   -8.2394    7.0571   -4.4339 C   0  0  0  0  0  0  0  0  0  0  0  0
   -8.1048    5.6562   -4.6303 O   0  0  0  0  0  0  0  0  0  0  0  0
   -9.3494    4.9748   -4.4651 C   0  0  0  0  0  0  0  0  0  0  0  0
   -9.1796    3.4805   -4.7175 C   0  0  0  0  0  0  0  0  0  0  0  0
   -9.6806    2.9565   -6.0796 C   0  0  0  0  0  0  0  0  0  0  0  0
   -8.7454    3.1614   -7.1713 N   0  0  0  0  0  0  0  0  0  0  0  0
   -8.4062    4.5520   -7.4560 C   0  0  0  0  0  0  0  0  0  0  0  0
   -8.2459    4.6260   -8.9310 C   0  0  0  0  0  0  0  0  0  0  0  0
   -7.8195    5.7059   -9.6739 C   0  0  0  0  0  0  0  0  0  0  0  0
   -7.7850    5.5683  -11.0558 C   0  0  0  0  0  0  0  0  0  0  0  0
   -8.1783    4.3700  -11.6749 C   0  0  0  0  0  0  0  0  0  0  0  0
   -8.1346    4.2820  -13.0663 N   0  0  0  0  0  0  0  0  0  0  0  0
   -7.5446    5.2562  -14.1187 C   0  0  0  0  0  0  0  0  0  0  0  0
   -7.0731    6.3185  -13.9880 O   0  0  0  0  0  0  0  0  0  0  0  0
   -7.6281    4.7344  -15.5049 C   0  0  0  0  0  0  0  0  0  0  0  0
   -8.8071    4.1267  -15.9806 C   0  0  0  0  0  0  0  0  0  0  0  0
   -8.9091    3.7693  -17.3216 C   0  0  0  0  0  0  0  0  0  0  0  0
  -10.0304    3.2296  -17.8017 F   0  0  0  0  0  0  0  0  0  0  0  0
   -7.8381    4.0010  -18.1427 C   0  0  0  0  0  0  0  0  0  0  0  0
   -7.6623    3.7088  -19.4884 N   0  0  0  0  0  0  0  0  0  0  0  0
   -6.3989    4.1654  -19.8830 C   0  0  0  0  0  0  0  0  0  0  0  0
   -5.8883    4.0641  -20.9863 O   0  0  0  0  0  0  0  0  0  0  0  0
   -5.8009    4.7300  -18.7405 N   0  0  0  0  0  0  0  0  0  0  0  0
   -6.6837    4.6115  -17.6738 C   0  0  0  0  0  0  0  0  0  0  0  0
   -6.5438    4.9951  -16.3631 C   0  0  0  0  0  0  0  0  0  0  0  0
   -8.6198    3.2842  -10.9036 C   0  0  0  0  0  0  0  0  0  0  0  0
   -8.6451    3.4303   -9.5221 C   0  0  0  0  0  0  0  0  0  0  0  0
   -9.1049    2.4891   -8.4449 C   0  0  0  0  0  0  0  0  0  0  0  0
  1  2  1  0
  2  3  1  0
  3  4  1  0
  4  5  1  0
  5  6  1  0
  6  7  1  0
  7  8  1  0
  8  9  2  0
  9 10  1  0
 10 11  2  0
 11 12  1  0
 12 13  1  0
 13 14  2  0
 13 15  1  0
 15 16  2  0
 16 17  1  0
 17 18  1  0
 17 19  2  0
 19 20  1  0
 20 21  1  0
 21 22  2  0
 21 23  1  0
 23 24  1  0
 24 25  2  0
 11 26  1  0
 26 27  2  0
 27 28  1  0
 28  6  1  0
 27  8  1  0
 25 15  1  0
 24 19  1  0
M  END
>  <name>  (94) 
P103775

>  <alias>  (94) 
None

>  <smina_score_min>  (94) 
-8.354

>  <exports>  (94) 
['/opt/xchem-fragalysis-2/maxwin/BulkDock/OUTPUTS/openbind_xx01zvns2b_c2_elabs_1LOUTNY.sdf', '/opt/xchem-fragalysis-2/maxwin/BulkDock/OUTPUTS/openbind_xx01zvns2b_c2_elabs_1LSYIIV.sdf']

>  <tags>  (94) 
syndirella_placed,openbind_xx01zvns2b_c2_elabs,openbind_xx01zvns2b_c2_elabs_scored_6.2plus,syndirella_product,openbind_xx01zvns2b_c2_elabs_scored,openbind_xx01zvns2b_c2_elabs_scored_top80percent,BulkDock Fragalysis export

>  <subsites>  (94) 
1 - Z4590/B/203/1

>  <smiles>  (94) 
COCCCN1Cc2ccc(NC(=O)c3cc(F)c4[nH]c(=O)[nH]c4c3)cc2C1

>  <HIPPO Pose ID>  (94) 
103775

>  <energy_score>  (94) 
-30.372595

>  <inchikey>  (94) 
ABSHSWMHOPTLRB-UHFFFAOYSA-N

>  <gnina_score_min>  (94) 
6.291

>  <gnina_score>  (94) 
6.181

>  <ref_mols>  (94) 
Z4245a

>  <HIPPO Compound ID>  (94) 
163644

>  <distance_score>  (94) 
0.610424

>  <rmsd(smina/fragmenstein)>  (94) 
0.513

>  <ref_pdb>  (94) 
Z4245a

>  <inspiration_score>  (94) 
None

$$$$
P103776
     RDKit          3D

 28 31  0  0  0  0  0  0  0  0999 V2000
   -7.1578    6.3709  -13.9246 O   0  0  0  0  0  0  0  0  0  0  0  0
   -7.5535    5.2844  -14.0927 C   0  0  0  0  0  0  0  0  0  0  0  0
   -8.0830    4.2415  -13.0788 N   0  0  0  0  0  0  0  0  0  0  0  0
   -8.1447    4.2823  -11.6871 C   0  0  0  0  0  0  0  0  0  0  0  0
   -7.8917    5.4787  -10.9981 C   0  0  0  0  0  0  0  0  0  0  0  0
   -7.9908    5.5367   -9.6080 C   0  0  0  0  0  0  0  0  0  0  0  0
   -8.3273    4.3805   -8.9301 C   0  0  0  0  0  0  0  0  0  0  0  0
   -8.5587    3.1858   -9.6007 C   0  0  0  0  0  0  0  0  0  0  0  0
   -8.4841    3.1206  -10.9837 C   0  0  0  0  0  0  0  0  0  0  0  0
   -8.8992    2.1138   -8.6136 C   0  0  0  0  0  0  0  0  0  0  0  0
   -8.8272    2.7675   -7.2811 N   0  0  0  0  0  0  0  0  0  0  0  0
   -9.9790    2.4316   -6.4323 C   0  0  0  0  0  0  0  0  0  0  0  0
  -10.2360    3.2440   -5.1571 C   0  0  0  0  0  0  0  0  0  0  0  0
  -11.2519    2.7022   -4.4495 F   0  0  0  0  0  0  0  0  0  0  0  0
  -10.6252    4.5128   -5.4557 F   0  0  0  0  0  0  0  0  0  0  0  0
   -9.1629    3.3538   -4.3461 F   0  0  0  0  0  0  0  0  0  0  0  0
   -8.5644    4.1991   -7.4717 C   0  0  0  0  0  0  0  0  0  0  0  0
   -7.6162    4.7835  -15.4894 C   0  0  0  0  0  0  0  0  0  0  0  0
   -8.7857    4.1562  -15.9689 C   0  0  0  0  0  0  0  0  0  0  0  0
   -8.8773    3.7887  -17.3070 C   0  0  0  0  0  0  0  0  0  0  0  0
   -9.9859    3.2233  -17.7874 F   0  0  0  0  0  0  0  0  0  0  0  0
   -7.8054    4.0312  -18.1228 C   0  0  0  0  0  0  0  0  0  0  0  0
   -7.6208    3.7339  -19.4662 N   0  0  0  0  0  0  0  0  0  0  0  0
   -6.3615    4.2036  -19.8579 C   0  0  0  0  0  0  0  0  0  0  0  0
   -5.8462    4.1037  -20.9591 O   0  0  0  0  0  0  0  0  0  0  0  0
   -5.7741    4.7802  -18.7149 N   0  0  0  0  0  0  0  0  0  0  0  0
   -6.6605    4.6597  -17.6507 C   0  0  0  0  0  0  0  0  0  0  0  0
   -6.5314    5.0554  -16.3407 C   0  0  0  0  0  0  0  0  0  0  0  0
  1  2  2  0
  2  3  1  0
  3  4  1  0
  4  5  2  0
  5  6  1  0
  6  7  2  0
  7  8  1  0
  8  9  2  0
  8 10  1  0
 10 11  1  0
 11 12  1  0
 12 13  1  0
 13 14  1  0
 13 15  1  0
 13 16  1  0
 11 17  1  0
  2 18  1  0
 18 19  2  0
 19 20  1  0
 20 21  1  0
 20 22  2  0
 22 23  1  0
 23 24  1  0
 24 25  2  0
 24 26  1  0
 26 27  1  0
 27 28  2  0
  9  4  1  0
 28 18  1  0
 17  7  1  0
 27 22  1  0
M  END
>  <name>  (95) 
P103776

>  <alias>  (95) 
None

>  <smina_score_min>  (95) 
-9.594

>  <exports>  (95) 
['/opt/xchem-fragalysis-2/maxwin/BulkDock/OUTPUTS/openbind_xx01zvns2b_c2_elabs_1LOUTNY.sdf', '/opt/xchem-fragalysis-2/maxwin/BulkDock/OUTPUTS/openbind_xx01zvns2b_c2_elabs_1LSYIIV.sdf']

>  <tags>  (95) 
syndirella_placed,openbind_xx01zvns2b_c2_elabs,openbind_xx01zvns2b_c2_elabs_scored_6.2plus,syndirella_product,openbind_xx01zvns2b_c2_elabs_scored,openbind_xx01zvns2b_c2_elabs_scored_top80percent,BulkDock Fragalysis export

>  <subsites>  (95) 
1 - Z4590/B/203/1

>  <smiles>  (95) 
O=C(Nc1ccc2c(c1)CN(CC(F)(F)F)C2)c1cc(F)c2[nH]c(=O)[nH]c2c1

>  <HIPPO Pose ID>  (95) 
103776

>  <energy_score>  (95) 
-33.321884

>  <inchikey>  (95) 
IRRXJLKASQQYER-UHFFFAOYSA-N

>  <gnina_score_min>  (95) 
6.335

>  <gnina_score>  (95) 
6.28

>  <ref_mols>  (95) 
Z4245a

>  <HIPPO Compound ID>  (95) 
163645

>  <distance_score>  (95) 
0.530521

>  <rmsd(smina/fragmenstein)>  (95) 
0.277

>  <ref_pdb>  (95) 
Z4245a

>  <inspiration_score>  (95) 
None

$$$$
P103777
     RDKit          3D

 28 31  0  0  0  0  0  0  0  0999 V2000
   -9.5241    3.9085   -4.0872 C   0  0  0  0  0  0  0  0  0  0  0  0
  -10.1896    3.5372   -5.2867 O   0  0  0  0  0  0  0  0  0  0  0  0
   -9.4344    2.5702   -6.0260 C   0  0  0  0  0  0  0  0  0  0  0  0
   -9.1038    3.1300   -7.2974 N   0  0  0  0  0  0  0  0  0  0  0  0
   -8.2775    4.2044   -7.4199 C   0  0  0  0  0  0  0  0  0  0  0  0
   -7.7172    4.8821   -6.5764 O   0  0  0  0  0  0  0  0  0  0  0  0
   -8.1015    4.4114   -8.8443 C   0  0  0  0  0  0  0  0  0  0  0  0
   -7.4739    5.4473   -9.4932 C   0  0  0  0  0  0  0  0  0  0  0  0
   -7.4440    5.3850  -10.8822 C   0  0  0  0  0  0  0  0  0  0  0  0
   -8.0198    4.3014  -11.5803 C   0  0  0  0  0  0  0  0  0  0  0  0
   -7.9516    4.2826  -12.9697 N   0  0  0  0  0  0  0  0  0  0  0  0
   -7.1749    5.1961  -13.9515 C   0  0  0  0  0  0  0  0  0  0  0  0
   -6.5341    6.1527  -13.7503 O   0  0  0  0  0  0  0  0  0  0  0  0
   -7.3421    4.7832  -15.3643 C   0  0  0  0  0  0  0  0  0  0  0  0
   -8.6133    4.4214  -15.8533 C   0  0  0  0  0  0  0  0  0  0  0  0
   -8.7907    4.1702  -17.2120 C   0  0  0  0  0  0  0  0  0  0  0  0
  -10.3542    3.9797  -17.8531 Cl  0  0  0  0  0  0  0  0  0  0  0  0
   -7.6906    4.2308  -18.0302 C   0  0  0  0  0  0  0  0  0  0  0  0
   -7.5636    3.9925  -19.3935 N   0  0  0  0  0  0  0  0  0  0  0  0
   -6.2531    4.2822  -19.7842 C   0  0  0  0  0  0  0  0  0  0  0  0
   -5.7729    4.1854  -20.9010 O   0  0  0  0  0  0  0  0  0  0  0  0
   -5.5695    4.6797  -18.6209 N   0  0  0  0  0  0  0  0  0  0  0  0
   -6.4502    4.6254  -17.5474 C   0  0  0  0  0  0  0  0  0  0  0  0
   -6.2399    4.9178  -16.2233 C   0  0  0  0  0  0  0  0  0  0  0  0
   -8.6613    3.2636  -10.8922 C   0  0  0  0  0  0  0  0  0  0  0  0
   -8.6925    3.3553   -9.5124 C   0  0  0  0  0  0  0  0  0  0  0  0
   -9.3001    2.4975   -8.4933 C   0  0  0  0  0  0  0  0  0  0  0  0
   -9.8491    1.4425   -8.7335 O   0  0  0  0  0  0  0  0  0  0  0  0
  1  2  1  0
  2  3  1  0
  3  4  1  0
  4  5  1  0
  5  6  2  0
  5  7  1  0
  7  8  2  0
  8  9  1  0
  9 10  2  0
 10 11  1  0
 11 12  1  0
 12 13  2  0
 12 14  1  0
 14 15  2  0
 15 16  1  0
 16 17  1  0
 16 18  2  0
 18 19  1  0
 19 20  1  0
 20 21  2  0
 20 22  1  0
 22 23  1  0
 23 24  2  0
 10 25  1  0
 25 26  2  0
 26 27  1  0
 27 28  2  0
 27  4  1  0
 26  7  1  0
 24 14  1  0
 23 18  1  0
M  END
>  <name>  (96) 
P103777

>  <alias>  (96) 
None

>  <smina_score_min>  (96) 
-8.479

>  <exports>  (96) 
['/opt/xchem-fragalysis-2/maxwin/BulkDock/OUTPUTS/openbind_xx01zvns2b_c2_elabs_1LOUTNY.sdf', '/opt/xchem-fragalysis-2/maxwin/BulkDock/OUTPUTS/openbind_xx01zvns2b_c2_elabs_1LSYIIV.sdf']

>  <tags>  (96) 
syndirella_placed,openbind_xx01zvns2b_c2_elabs,openbind_xx01zvns2b_c2_elabs_scored_6.2plus,syndirella_product,openbind_xx01zvns2b_c2_elabs_scored,openbind_xx01zvns2b_c2_elabs_scored_top80percent,BulkDock Fragalysis export

>  <subsites>  (96) 
1 - Z4590/B/203/1

>  <smiles>  (96) 
COCN1C(=O)c2ccc(NC(=O)c3cc(Cl)c4[nH]c(=O)[nH]c4c3)cc2C1=O

>  <HIPPO Pose ID>  (96) 
103777

>  <energy_score>  (96) 
-34.875932

>  <inchikey>  (96) 
YJIRSMYXDNNDIZ-UHFFFAOYSA-N

>  <gnina_score_min>  (96) 
6.239

>  <gnina_score>  (96) 
6.224

>  <ref_mols>  (96) 
Z4245a

>  <HIPPO Compound ID>  (96) 
163646

>  <distance_score>  (96) 
0.597439

>  <rmsd(smina/fragmenstein)>  (96) 
0.414

>  <ref_pdb>  (96) 
Z4245a

>  <inspiration_score>  (96) 
None

$$$$
P103795
     RDKit          3D

 28 31  0  0  0  0  0  0  0  0999 V2000
  -11.4747    2.0623   -5.3729 C   0  0  0  0  0  0  0  0  0  0  0  0
  -11.0153    3.4052   -5.3545 O   0  0  0  0  0  0  0  0  0  0  0  0
   -9.6411    3.4919   -4.9868 C   0  0  0  0  0  0  0  0  0  0  0  0
   -8.7218    2.7509   -5.9589 C   0  0  0  0  0  0  0  0  0  0  0  0
   -8.7240    3.3418   -7.2714 N   0  0  0  0  0  0  0  0  0  0  0  0
   -8.9344    2.5614   -8.4869 C   0  0  0  0  0  0  0  0  0  0  0  0
   -8.5289    3.5351   -9.5465 C   0  0  0  0  0  0  0  0  0  0  0  0
   -8.4753    3.4028  -10.9238 C   0  0  0  0  0  0  0  0  0  0  0  0
   -7.9729    4.4854  -11.6625 C   0  0  0  0  0  0  0  0  0  0  0  0
   -7.8131    4.3683  -13.0372 N   0  0  0  0  0  0  0  0  0  0  0  0
   -7.1611    5.3307  -14.0587 C   0  0  0  0  0  0  0  0  0  0  0  0
   -6.5886    6.3355  -13.8938 O   0  0  0  0  0  0  0  0  0  0  0  0
   -7.3255    4.8577  -15.4475 C   0  0  0  0  0  0  0  0  0  0  0  0
   -8.6001    4.4649  -15.9008 C   0  0  0  0  0  0  0  0  0  0  0  0
   -8.7941    4.1679  -17.2461 C   0  0  0  0  0  0  0  0  0  0  0  0
  -10.3668    3.9625  -17.8569 Cl  0  0  0  0  0  0  0  0  0  0  0  0
   -7.7051    4.2078  -18.0803 C   0  0  0  0  0  0  0  0  0  0  0  0
   -7.5951    3.9254  -19.4368 N   0  0  0  0  0  0  0  0  0  0  0  0
   -6.2949    4.2227  -19.8562 C   0  0  0  0  0  0  0  0  0  0  0  0
   -5.8327    4.1020  -20.9783 O   0  0  0  0  0  0  0  0  0  0  0  0
   -5.5976    4.6605  -18.7164 N   0  0  0  0  0  0  0  0  0  0  0  0
   -6.4610    4.6299  -17.6286 C   0  0  0  0  0  0  0  0  0  0  0  0
   -6.2340    4.9708  -16.3198 C   0  0  0  0  0  0  0  0  0  0  0  0
   -7.5916    5.6841  -11.0296 C   0  0  0  0  0  0  0  0  0  0  0  0
   -7.6620    5.8171   -9.6506 C   0  0  0  0  0  0  0  0  0  0  0  0
   -8.1135    4.7259   -8.9479 C   0  0  0  0  0  0  0  0  0  0  0  0
   -8.1782    4.5800   -7.5020 C   0  0  0  0  0  0  0  0  0  0  0  0
   -7.7699    5.4006   -6.7005 O   0  0  0  0  0  0  0  0  0  0  0  0
  1  2  1  0
  2  3  1  0
  3  4  1  0
  4  5  1  0
  5  6  1  0
  6  7  1  0
  7  8  2  0
  8  9  1  0
  9 10  1  0
 10 11  1  0
 11 12  2  0
 11 13  1  0
 13 14  2  0
 14 15  1  0
 15 16  1  0
 15 17  2  0
 17 18  1  0
 18 19  1  0
 19 20  2  0
 19 21  1  0
 21 22  1  0
 22 23  2  0
  9 24  2  0
 24 25  1  0
 25 26  2  0
 26 27  1  0
 27 28  2  0
 27  5  1  0
 26  7  1  0
 23 13  1  0
 22 17  1  0
M  END
>  <name>  (97) 
P103795

>  <alias>  (97) 
None

>  <smina_score_min>  (97) 
-7.702

>  <exports>  (97) 
['/opt/xchem-fragalysis-2/maxwin/BulkDock/OUTPUTS/openbind_xx01zvns2b_c2_elabs_1LOUTNY.sdf', '/opt/xchem-fragalysis-2/maxwin/BulkDock/OUTPUTS/openbind_xx01zvns2b_c2_elabs_1LSYIIV.sdf']

>  <tags>  (97) 
syndirella_placed,openbind_xx01zvns2b_c2_elabs,openbind_xx01zvns2b_c2_elabs_scored_6.2plus,syndirella_product,openbind_xx01zvns2b_c2_elabs_scored,openbind_xx01zvns2b_c2_elabs_scored_top80percent,BulkDock Fragalysis export

>  <subsites>  (97) 
1 - Z4590/B/203/1

>  <smiles>  (97) 
COCCN1Cc2cc(NC(=O)c3cc(Cl)c4[nH]c(=O)[nH]c4c3)ccc2C1=O

>  <HIPPO Pose ID>  (97) 
103795

>  <energy_score>  (97) 
-26.366212

>  <inchikey>  (97) 
XPMQXDAQBQLMNC-UHFFFAOYSA-N

>  <gnina_score_min>  (97) 
6.335

>  <gnina_score>  (97) 
6.162

>  <ref_mols>  (97) 
Z4245a

>  <HIPPO Compound ID>  (97) 
163674

>  <distance_score>  (97) 
0.721923

>  <rmsd(smina/fragmenstein)>  (97) 
0.818

>  <ref_pdb>  (97) 
Z4245a

>  <inspiration_score>  (97) 
None

$$$$
P103813
     RDKit          3D

 28 31  0  0  0  0  0  0  0  0999 V2000
   -9.2307    6.1198   -3.5392 C   0  0  0  0  0  0  0  0  0  0  0  0
   -8.5994    4.9777   -4.3366 C   0  0  0  0  0  0  0  0  0  0  0  0
   -7.5740    4.2755   -3.4603 C   0  0  0  0  0  0  0  0  0  0  0  0
   -9.6742    3.9928   -4.8621 C   0  0  0  0  0  0  0  0  0  0  0  0
   -9.2331    2.9751   -5.9469 C   0  0  0  0  0  0  0  0  0  0  0  0
   -9.3084    3.5415   -7.2855 N   0  0  0  0  0  0  0  0  0  0  0  0
   -8.3912    4.6550   -7.5111 C   0  0  0  0  0  0  0  0  0  0  0  0
   -8.2233    4.6898   -8.9829 C   0  0  0  0  0  0  0  0  0  0  0  0
   -7.7462    5.7320   -9.7433 C   0  0  0  0  0  0  0  0  0  0  0  0
   -7.6736    5.5396  -11.1131 C   0  0  0  0  0  0  0  0  0  0  0  0
   -8.0658    4.3231  -11.6998 C   0  0  0  0  0  0  0  0  0  0  0  0
   -7.9468    4.1904  -13.0827 N   0  0  0  0  0  0  0  0  0  0  0  0
   -7.5455    5.2286  -14.1634 C   0  0  0  0  0  0  0  0  0  0  0  0
   -7.1786    6.3334  -14.0536 O   0  0  0  0  0  0  0  0  0  0  0  0
   -7.6414    4.6947  -15.5339 C   0  0  0  0  0  0  0  0  0  0  0  0
   -8.8381    4.1011  -15.9950 C   0  0  0  0  0  0  0  0  0  0  0  0
   -8.9815    3.7310  -17.3371 C   0  0  0  0  0  0  0  0  0  0  0  0
   -7.9060    3.9575  -18.1605 C   0  0  0  0  0  0  0  0  0  0  0  0
   -7.7486    3.6619  -19.5058 N   0  0  0  0  0  0  0  0  0  0  0  0
   -6.4801    4.0958  -19.9188 C   0  0  0  0  0  0  0  0  0  0  0  0
   -5.9877    3.9769  -21.0285 O   0  0  0  0  0  0  0  0  0  0  0  0
   -5.8602    4.6545  -18.7911 N   0  0  0  0  0  0  0  0  0  0  0  0
   -6.7323    4.5514  -17.7120 C   0  0  0  0  0  0  0  0  0  0  0  0
   -6.5732    4.9274  -16.4044 C   0  0  0  0  0  0  0  0  0  0  0  0
   -5.4271    5.4935  -16.0016 F   0  0  0  0  0  0  0  0  0  0  0  0
   -8.5457    3.2680  -10.9060 C   0  0  0  0  0  0  0  0  0  0  0  0
   -8.6259    3.4727   -9.5350 C   0  0  0  0  0  0  0  0  0  0  0  0
   -9.1031    2.5876   -8.4107 C   0  0  0  0  0  0  0  0  0  0  0  0
  1  2  1  0
  2  3  1  0
  2  4  1  0
  4  5  1  0
  5  6  1  0
  6  7  1  0
  7  8  1  0
  8  9  2  0
  9 10  1  0
 10 11  2  0
 11 12  1  0
 12 13  1  0
 13 14  2  0
 13 15  1  0
 15 16  2  0
 16 17  1  0
 17 18  2  0
 18 19  1  0
 19 20  1  0
 20 21  2  0
 20 22  1  0
 22 23  1  0
 23 24  2  0
 24 25  1  0
 11 26  1  0
 26 27  2  0
 27 28  1  0
 28  6  1  0
 27  8  1  0
 24 15  1  0
 23 18  1  0
M  END
>  <name>  (98) 
P103813

>  <alias>  (98) 
None

>  <smina_score_min>  (98) 
-9.104

>  <exports>  (98) 
['/opt/xchem-fragalysis-2/maxwin/BulkDock/OUTPUTS/openbind_xx01zvns2b_c2_elabs_1LOUTNY.sdf', '/opt/xchem-fragalysis-2/maxwin/BulkDock/OUTPUTS/openbind_xx01zvns2b_c2_elabs_1LSYIIV.sdf']

>  <tags>  (98) 
syndirella_placed,openbind_xx01zvns2b_c2_elabs,openbind_xx01zvns2b_c2_elabs_scored_6.2plus,syndirella_product,openbind_xx01zvns2b_c2_elabs_scored,openbind_xx01zvns2b_c2_elabs_scored_top80percent,BulkDock Fragalysis export

>  <subsites>  (98) 
1 - Z4590/B/203/1

>  <smiles>  (98) 
CC(C)CCN1Cc2ccc(NC(=O)c3ccc4[nH]c(=O)[nH]c4c3F)cc2C1

>  <HIPPO Pose ID>  (98) 
103813

>  <energy_score>  (98) 
-46.059803

>  <inchikey>  (98) 
NYIJZLVXXAHHGL-UHFFFAOYSA-N

>  <gnina_score_min>  (98) 
6.208

>  <gnina_score>  (98) 
6.086

>  <ref_mols>  (98) 
Z4245a

>  <HIPPO Compound ID>  (98) 
163693

>  <distance_score>  (98) 
0.696579

>  <rmsd(smina/fragmenstein)>  (98) 
0.625

>  <ref_pdb>  (98) 
Z4245a

>  <inspiration_score>  (98) 
None

$$$$
P103815
     RDKit          3D

 28 31  0  0  0  0  0  0  0  0999 V2000
   -9.7365    4.4589   -3.0815 C   0  0  0  0  0  0  0  0  0  0  0  0
   -8.8481    4.9526   -4.2182 C   0  0  0  0  0  0  0  0  0  0  0  0
   -7.8615    5.9891   -3.6736 C   0  0  0  0  0  0  0  0  0  0  0  0
   -8.0852    3.7757   -4.8453 C   0  0  0  0  0  0  0  0  0  0  0  0
   -8.8413    2.9536   -5.9204 C   0  0  0  0  0  0  0  0  0  0  0  0
   -9.1130    3.6296   -7.1880 N   0  0  0  0  0  0  0  0  0  0  0  0
   -8.2073    4.7296   -7.5122 C   0  0  0  0  0  0  0  0  0  0  0  0
   -8.2177    4.8012   -8.9915 C   0  0  0  0  0  0  0  0  0  0  0  0
   -7.7650    5.8380   -9.7733 C   0  0  0  0  0  0  0  0  0  0  0  0
   -7.7578    5.6451  -11.1441 C   0  0  0  0  0  0  0  0  0  0  0  0
   -8.1836    4.4310  -11.7111 C   0  0  0  0  0  0  0  0  0  0  0  0
   -8.0758    4.2811  -13.0923 N   0  0  0  0  0  0  0  0  0  0  0  0
   -7.4990    5.2393  -14.1677 C   0  0  0  0  0  0  0  0  0  0  0  0
   -6.9554    6.2690  -14.0525 O   0  0  0  0  0  0  0  0  0  0  0  0
   -7.6205    4.7194  -15.5490 C   0  0  0  0  0  0  0  0  0  0  0  0
   -8.8104    4.1240  -16.0087 C   0  0  0  0  0  0  0  0  0  0  0  0
   -8.9279    3.7645  -17.3483 C   0  0  0  0  0  0  0  0  0  0  0  0
  -10.0597    3.2356  -17.8153 F   0  0  0  0  0  0  0  0  0  0  0  0
   -7.8620    3.9819  -18.1808 C   0  0  0  0  0  0  0  0  0  0  0  0
   -7.6976    3.6811  -19.5258 N   0  0  0  0  0  0  0  0  0  0  0  0
   -6.4336    4.1260  -19.9321 C   0  0  0  0  0  0  0  0  0  0  0  0
   -5.9314    4.0158  -21.0383 O   0  0  0  0  0  0  0  0  0  0  0  0
   -5.8227    4.6912  -18.7983 N   0  0  0  0  0  0  0  0  0  0  0  0
   -6.6983    4.5834  -17.7259 C   0  0  0  0  0  0  0  0  0  0  0  0
   -6.5422    4.9671  -16.4194 C   0  0  0  0  0  0  0  0  0  0  0  0
   -8.6680    3.3932  -10.8975 C   0  0  0  0  0  0  0  0  0  0  0  0
   -8.6877    3.6016   -9.5237 C   0  0  0  0  0  0  0  0  0  0  0  0
   -9.1149    2.7173   -8.3794 C   0  0  0  0  0  0  0  0  0  0  0  0
  1  2  1  0
  2  3  1  0
  2  4  1  0
  4  5  1  0
  5  6  1  0
  6  7  1  0
  7  8  1  0
  8  9  2  0
  9 10  1  0
 10 11  2  0
 11 12  1  0
 12 13  1  0
 13 14  2  0
 13 15  1  0
 15 16  2  0
 16 17  1  0
 17 18  1  0
 17 19  2  0
 19 20  1  0
 20 21  1  0
 21 22  2  0
 21 23  1  0
 23 24  1  0
 24 25  2  0
 11 26  1  0
 26 27  2  0
 27 28  1  0
 28  6  1  0
 27  8  1  0
 25 15  1  0
 24 19  1  0
M  END
>  <name>  (99) 
P103815

>  <alias>  (99) 
None

>  <smina_score_min>  (99) 
-8.62

>  <exports>  (99) 
['/opt/xchem-fragalysis-2/maxwin/BulkDock/OUTPUTS/openbind_xx01zvns2b_c2_elabs_1LOUTNY.sdf', '/opt/xchem-fragalysis-2/maxwin/BulkDock/OUTPUTS/openbind_xx01zvns2b_c2_elabs_1LSYIIV.sdf']

>  <tags>  (99) 
syndirella_placed,openbind_xx01zvns2b_c2_elabs,openbind_xx01zvns2b_c2_elabs_scored_6.2plus,syndirella_product,openbind_xx01zvns2b_c2_elabs_scored,openbind_xx01zvns2b_c2_elabs_scored_top80percent,BulkDock Fragalysis export

>  <subsites>  (99) 
1 - Z4590/B/203/1

>  <smiles>  (99) 
CC(C)CCN1Cc2ccc(NC(=O)c3cc(F)c4[nH]c(=O)[nH]c4c3)cc2C1

>  <HIPPO Pose ID>  (99) 
103815

>  <energy_score>  (99) 
-31.427884

>  <inchikey>  (99) 
RTMOKLIDZIPZIR-UHFFFAOYSA-N

>  <gnina_score_min>  (99) 
6.306

>  <gnina_score>  (99) 
6.193

>  <ref_mols>  (99) 
Z4245a

>  <HIPPO Compound ID>  (99) 
163695

>  <distance_score>  (99) 
0.720603

>  <rmsd(smina/fragmenstein)>  (99) 
0.492

>  <ref_pdb>  (99) 
Z4245a

>  <inspiration_score>  (99) 
None

$$$$
P103821
     RDKit          3D

 28 31  0  0  0  0  0  0  0  0999 V2000
   -8.8060    6.6495   -3.8292 C   0  0  0  0  0  0  0  0  0  0  0  0
   -9.4380    5.4711   -3.3455 O   0  0  0  0  0  0  0  0  0  0  0  0
   -9.8170    4.5764   -4.3985 C   0  0  0  0  0  0  0  0  0  0  0  0
   -8.6729    3.6493   -4.7476 C   0  0  0  0  0  0  0  0  0  0  0  0
   -8.9914    2.7436   -5.9531 C   0  0  0  0  0  0  0  0  0  0  0  0
   -9.1875    3.4761   -7.2008 N   0  0  0  0  0  0  0  0  0  0  0  0
   -8.1917    4.5294   -7.4195 C   0  0  0  0  0  0  0  0  0  0  0  0
   -8.0980    4.6521   -8.8916 C   0  0  0  0  0  0  0  0  0  0  0  0
   -7.5332    5.6807   -9.6089 C   0  0  0  0  0  0  0  0  0  0  0  0
   -7.4671    5.5359  -10.9846 C   0  0  0  0  0  0  0  0  0  0  0  0
   -7.9585    4.3811  -11.6168 C   0  0  0  0  0  0  0  0  0  0  0  0
   -7.8105    4.2661  -12.9955 N   0  0  0  0  0  0  0  0  0  0  0  0
   -7.1814    5.2391  -14.0248 C   0  0  0  0  0  0  0  0  0  0  0  0
   -6.6212    6.2529  -13.8651 O   0  0  0  0  0  0  0  0  0  0  0  0
   -7.3549    4.7869  -15.4183 C   0  0  0  0  0  0  0  0  0  0  0  0
   -8.6307    4.4173  -15.8833 C   0  0  0  0  0  0  0  0  0  0  0  0
   -8.8222    4.1515  -17.2364 C   0  0  0  0  0  0  0  0  0  0  0  0
  -10.3943    3.9778  -17.8595 Cl  0  0  0  0  0  0  0  0  0  0  0  0
   -7.7299    4.1969  -18.0669 C   0  0  0  0  0  0  0  0  0  0  0  0
   -7.6158    3.9351  -19.4272 N   0  0  0  0  0  0  0  0  0  0  0  0
   -6.3101    4.2236  -19.8357 C   0  0  0  0  0  0  0  0  0  0  0  0
   -5.8405    4.1100  -20.9557 O   0  0  0  0  0  0  0  0  0  0  0  0
   -5.6159    4.6421  -18.6868 N   0  0  0  0  0  0  0  0  0  0  0  0
   -6.4847    4.6001  -17.6036 C   0  0  0  0  0  0  0  0  0  0  0  0
   -6.2607    4.9120  -16.2875 C   0  0  0  0  0  0  0  0  0  0  0  0
   -8.5590    3.3548  -10.8723 C   0  0  0  0  0  0  0  0  0  0  0  0
   -8.6210    3.5091   -9.4955 C   0  0  0  0  0  0  0  0  0  0  0  0
   -9.1499    2.6033   -8.4160 C   0  0  0  0  0  0  0  0  0  0  0  0
  1  2  1  0
  2  3  1  0
  3  4  1  0
  4  5  1  0
  5  6  1  0
  6  7  1  0
  7  8  1  0
  8  9  2  0
  9 10  1  0
 10 11  2  0
 11 12  1  0
 12 13  1  0
 13 14  2  0
 13 15  1  0
 15 16  2  0
 16 17  1  0
 17 18  1  0
 17 19  2  0
 19 20  1  0
 20 21  1  0
 21 22  2  0
 21 23  1  0
 23 24  1  0
 24 25  2  0
 11 26  1  0
 26 27  2  0
 27 28  1  0
 28  6  1  0
 27  8  1  0
 25 15  1  0
 24 19  1  0
M  END
>  <name>  (100) 
P103821

>  <alias>  (100) 
None

>  <smina_score_min>  (100) 
-7.447

>  <exports>  (100) 
['/opt/xchem-fragalysis-2/maxwin/BulkDock/OUTPUTS/openbind_xx01zvns2b_c2_elabs_1LOUTNY.sdf', '/opt/xchem-fragalysis-2/maxwin/BulkDock/OUTPUTS/openbind_xx01zvns2b_c2_elabs_1LSYIIV.sdf']

>  <tags>  (100) 
syndirella_placed,openbind_xx01zvns2b_c2_elabs,openbind_xx01zvns2b_c2_elabs_scored_6.2plus,syndirella_product,openbind_xx01zvns2b_c2_elabs_scored,openbind_xx01zvns2b_c2_elabs_scored_top80percent,BulkDock Fragalysis export

>  <subsites>  (100) 
1 - Z4590/B/203/1

>  <smiles>  (100) 
COCCCN1Cc2ccc(NC(=O)c3cc(Cl)c4[nH]c(=O)[nH]c4c3)cc2C1

>  <HIPPO Pose ID>  (100) 
103821

>  <energy_score>  (100) 
-11.291378

>  <inchikey>  (100) 
WLYXQKHCRKKFAG-UHFFFAOYSA-N

>  <gnina_score_min>  (100) 
6.297

>  <gnina_score>  (100) 
6.197

>  <ref_mols>  (100) 
Z4245a

>  <HIPPO Compound ID>  (100) 
163704

>  <distance_score>  (100) 
0.694145

>  <rmsd(smina/fragmenstein)>  (100) 
0.415

>  <ref_pdb>  (100) 
Z4245a

>  <inspiration_score>  (100) 
None

$$$$
P103823
     RDKit          3D

 28 31  0  0  0  0  0  0  0  0999 V2000
   -6.5467    6.3651  -13.7941 O   0  0  0  0  0  0  0  0  0  0  0  0
   -7.0539    5.3411  -14.0296 C   0  0  0  0  0  0  0  0  0  0  0  0
   -7.6425    4.2747  -13.0818 N   0  0  0  0  0  0  0  0  0  0  0  0
   -7.8097    4.2866  -11.7045 C   0  0  0  0  0  0  0  0  0  0  0  0
   -7.5060    5.4259  -10.9411 C   0  0  0  0  0  0  0  0  0  0  0  0
   -7.7158    5.4379   -9.5613 C   0  0  0  0  0  0  0  0  0  0  0  0
   -8.2277    4.2970   -8.9799 C   0  0  0  0  0  0  0  0  0  0  0  0
   -8.5175    3.1578   -9.7371 C   0  0  0  0  0  0  0  0  0  0  0  0
   -8.3194    3.1354  -11.1007 C   0  0  0  0  0  0  0  0  0  0  0  0
   -9.0643    2.0969   -8.8377 C   0  0  0  0  0  0  0  0  0  0  0  0
   -9.4958    2.8798   -7.6752 N   0  0  0  0  0  0  0  0  0  0  0  0
   -9.6900    2.1110   -6.4538 C   0  0  0  0  0  0  0  0  0  0  0  0
  -10.2491    2.9271   -5.2808 C   0  0  0  0  0  0  0  0  0  0  0  0
   -9.2651    3.4019   -4.4784 F   0  0  0  0  0  0  0  0  0  0  0  0
  -11.0970    2.1952   -4.5329 F   0  0  0  0  0  0  0  0  0  0  0  0
  -10.9451    4.0141   -5.7030 F   0  0  0  0  0  0  0  0  0  0  0  0
   -8.5960    4.0345   -7.5579 C   0  0  0  0  0  0  0  0  0  0  0  0
   -7.2266    4.9307  -15.4403 C   0  0  0  0  0  0  0  0  0  0  0  0
   -8.5027    4.5213  -15.8878 C   0  0  0  0  0  0  0  0  0  0  0  0
   -8.7001    4.2103  -17.2292 C   0  0  0  0  0  0  0  0  0  0  0  0
  -10.2661    3.9392  -17.8322 Cl  0  0  0  0  0  0  0  0  0  0  0  0
   -7.6148    4.2655  -18.0664 C   0  0  0  0  0  0  0  0  0  0  0  0
   -7.5082    3.9774  -19.4218 N   0  0  0  0  0  0  0  0  0  0  0  0
   -6.2138    4.2857  -19.8487 C   0  0  0  0  0  0  0  0  0  0  0  0
   -5.7566    4.1666  -20.9728 O   0  0  0  0  0  0  0  0  0  0  0  0
   -5.5142    4.7339  -18.7137 N   0  0  0  0  0  0  0  0  0  0  0  0
   -6.3728    4.7054  -17.6216 C   0  0  0  0  0  0  0  0  0  0  0  0
   -6.1413    5.0559  -16.3149 C   0  0  0  0  0  0  0  0  0  0  0  0
  1  2  2  0
  2  3  1  0
  3  4  1  0
  4  5  2  0
  5  6  1  0
  6  7  2  0
  7  8  1  0
  8  9  2  0
  8 10  1  0
 10 11  1  0
 11 12  1  0
 12 13  1  0
 13 14  1  0
 13 15  1  0
 13 16  1  0
 11 17  1  0
  2 18  1  0
 18 19  2  0
 19 20  1  0
 20 21  1  0
 20 22  2  0
 22 23  1  0
 23 24  1  0
 24 25  2  0
 24 26  1  0
 26 27  1  0
 27 28  2  0
  9  4  1  0
 28 18  1  0
 17  7  1  0
 27 22  1  0
M  END
>  <name>  (101) 
P103823

>  <alias>  (101) 
None

>  <smina_score_min>  (101) 
-9.43

>  <exports>  (101) 
['/opt/xchem-fragalysis-2/maxwin/BulkDock/OUTPUTS/openbind_xx01zvns2b_c2_elabs_1LOUTNY.sdf', '/opt/xchem-fragalysis-2/maxwin/BulkDock/OUTPUTS/openbind_xx01zvns2b_c2_elabs_1LSYIIV.sdf']

>  <tags>  (101) 
syndirella_placed,openbind_xx01zvns2b_c2_elabs,openbind_xx01zvns2b_c2_elabs_scored_6.2plus,syndirella_product,openbind_xx01zvns2b_c2_elabs_scored,openbind_xx01zvns2b_c2_elabs_scored_top80percent,BulkDock Fragalysis export

>  <subsites>  (101) 
1 - Z4590/B/203/1

>  <smiles>  (101) 
O=C(Nc1ccc2c(c1)CN(CC(F)(F)F)C2)c1cc(Cl)c2[nH]c(=O)[nH]c2c1

>  <HIPPO Pose ID>  (101) 
103823

>  <energy_score>  (101) 
-12.694338

>  <inchikey>  (101) 
OIBWNSZOLZNYJA-UHFFFAOYSA-N

>  <gnina_score_min>  (101) 
6.409

>  <gnina_score>  (101) 
6.359

>  <ref_mols>  (101) 
Z4245a

>  <HIPPO Compound ID>  (101) 
163706

>  <distance_score>  (101) 
0.678311

>  <rmsd(smina/fragmenstein)>  (101) 
0.297

>  <ref_pdb>  (101) 
Z4245a

>  <inspiration_score>  (101) 
None

$$$$
P103850
     RDKit          3D

 29 32  0  0  0  0  0  0  0  0999 V2000
   -9.0800    5.3553   -3.0061 C   0  0  0  0  0  0  0  0  0  0  0  0
   -9.1691    5.0177   -4.4883 C   0  0  0  0  0  0  0  0  0  0  0  0
   -9.1695    3.5060   -4.7127 C   0  0  0  0  0  0  0  0  0  0  0  0
   -9.6578    3.0036   -6.0862 C   0  0  0  0  0  0  0  0  0  0  0  0
   -8.7127    3.2316   -7.1678 N   0  0  0  0  0  0  0  0  0  0  0  0
   -8.4558    4.6334   -7.4806 C   0  0  0  0  0  0  0  0  0  0  0  0
   -8.2955    4.6929   -8.9547 C   0  0  0  0  0  0  0  0  0  0  0  0
   -7.9192    5.7817   -9.7112 C   0  0  0  0  0  0  0  0  0  0  0  0
   -7.8736    5.6265  -11.0905 C   0  0  0  0  0  0  0  0  0  0  0  0
   -8.2061    4.4023  -11.6948 C   0  0  0  0  0  0  0  0  0  0  0  0
   -8.1565    4.3036  -13.0860 N   0  0  0  0  0  0  0  0  0  0  0  0
   -7.6313    5.3042  -14.1487 C   0  0  0  0  0  0  0  0  0  0  0  0
   -7.2302    6.3966  -14.0286 O   0  0  0  0  0  0  0  0  0  0  0  0
   -7.6759    4.7590  -15.5296 C   0  0  0  0  0  0  0  0  0  0  0  0
   -8.8112    4.0706  -16.0062 C   0  0  0  0  0  0  0  0  0  0  0  0
   -8.8868    3.6632  -17.3400 C   0  0  0  0  0  0  0  0  0  0  0  0
   -7.8069    3.9498  -18.1405 C   0  0  0  0  0  0  0  0  0  0  0  0
   -7.6201    3.6382  -19.4766 N   0  0  0  0  0  0  0  0  0  0  0  0
   -6.3958    4.1747  -19.9062 C   0  0  0  0  0  0  0  0  0  0  0  0
   -5.9469    4.0852  -21.0399 O   0  0  0  0  0  0  0  0  0  0  0  0
   -5.8107    4.8042  -18.7769 N   0  0  0  0  0  0  0  0  0  0  0  0
   -4.6675    5.7019  -18.8008 C   0  0  0  0  0  0  0  0  0  0  0  0
   -3.4095    5.0523  -19.3762 C   0  0  0  0  0  0  0  0  0  0  0  0
   -5.0051    6.9850  -19.5633 C   0  0  0  0  0  0  0  0  0  0  0  0
   -6.6911    4.6505  -17.6896 C   0  0  0  0  0  0  0  0  0  0  0  0
   -6.6032    5.0714  -16.3828 C   0  0  0  0  0  0  0  0  0  0  0  0
   -8.5944    3.3060  -10.9086 C   0  0  0  0  0  0  0  0  0  0  0  0
   -8.6320    3.4701   -9.5285 C   0  0  0  0  0  0  0  0  0  0  0  0
   -9.0476    2.5252   -8.4354 C   0  0  0  0  0  0  0  0  0  0  0  0
  1  2  1  0
  2  3  1  0
  3  4  1  0
  4  5  1  0
  5  6  1  0
  6  7  1  0
  7  8  2  0
  8  9  1  0
  9 10  2  0
 10 11  1  0
 11 12  1  0
 12 13  2  0
 12 14  1  0
 14 15  2  0
 15 16  1  0
 16 17  2  0
 17 18  1  0
 18 19  1  0
 19 20  2  0
 19 21  1  0
 21 22  1  0
 22 23  1  0
 22 24  1  0
 21 25  1  0
 25 26  2  0
 10 27  1  0
 27 28  2  0
 28 29  1  0
 29  5  1  0
 28  7  1  0
 26 14  1  0
 25 17  1  0
M  END
>  <name>  (102) 
P103850

>  <alias>  (102) 
None

>  <smina_score_min>  (102) 
-8.955

>  <exports>  (102) 
['/opt/xchem-fragalysis-2/maxwin/BulkDock/OUTPUTS/openbind_xx01zvns2b_c2_elabs_1LOUTNY.sdf', '/opt/xchem-fragalysis-2/maxwin/BulkDock/OUTPUTS/openbind_xx01zvns2b_c2_elabs_1LSYIIV.sdf']

>  <tags>  (102) 
syndirella_placed,openbind_xx01zvns2b_c2_elabs,openbind_xx01zvns2b_c2_elabs_scored_6.2plus,syndirella_product,openbind_xx01zvns2b_c2_elabs_scored,openbind_xx01zvns2b_c2_elabs_scored_top80percent,BulkDock Fragalysis export

>  <subsites>  (102) 
1 - Z4590/B/203/1

>  <smiles>  (102) 
CCCCN1Cc2ccc(NC(=O)c3ccc4[nH]c(=O)n(C(C)C)c4c3)cc2C1

>  <HIPPO Pose ID>  (102) 
103850

>  <energy_score>  (102) 
-38.240531

>  <inchikey>  (102) 
SRIGYZQSAWRCAU-UHFFFAOYSA-N

>  <gnina_score_min>  (102) 
6.275

>  <gnina_score>  (102) 
6.245

>  <ref_mols>  (102) 
Z4245a

>  <HIPPO Compound ID>  (102) 
163761

>  <distance_score>  (102) 
0.655496

>  <rmsd(smina/fragmenstein)>  (102) 
0.623

>  <ref_pdb>  (102) 
Z4245a

>  <inspiration_score>  (102) 
None

$$$$
P103851
     RDKit          3D

 29 32  0  0  0  0  0  0  0  0999 V2000
   -3.4605    5.2067  -18.1491 C   0  0  0  0  0  0  0  0  0  0  0  0
   -4.6346    5.6521  -19.0163 C   0  0  0  0  0  0  0  0  0  0  0  0
   -4.9566    7.1353  -18.8218 C   0  0  0  0  0  0  0  0  0  0  0  0
   -5.8109    4.8167  -18.8775 N   0  0  0  0  0  0  0  0  0  0  0  0
   -6.4243    4.1504  -19.9692 C   0  0  0  0  0  0  0  0  0  0  0  0
   -5.9919    4.0179  -21.1051 O   0  0  0  0  0  0  0  0  0  0  0  0
   -7.6399    3.6378  -19.4975 N   0  0  0  0  0  0  0  0  0  0  0  0
   -7.7916    3.9889  -18.1673 C   0  0  0  0  0  0  0  0  0  0  0  0
   -8.8566    3.7271  -17.3390 C   0  0  0  0  0  0  0  0  0  0  0  0
   -8.7436    4.1576  -16.0176 C   0  0  0  0  0  0  0  0  0  0  0  0
   -7.5859    4.8408  -15.5816 C   0  0  0  0  0  0  0  0  0  0  0  0
   -7.4719    5.3308  -14.1823 C   0  0  0  0  0  0  0  0  0  0  0  0
   -7.0404    6.4017  -14.0042 O   0  0  0  0  0  0  0  0  0  0  0  0
   -7.9346    4.2553  -13.1711 N   0  0  0  0  0  0  0  0  0  0  0  0
   -8.0475    4.3069  -11.7857 C   0  0  0  0  0  0  0  0  0  0  0  0
   -7.7267    5.4776  -11.0780 C   0  0  0  0  0  0  0  0  0  0  0  0
   -7.8458    5.5310   -9.6888 C   0  0  0  0  0  0  0  0  0  0  0  0
   -8.2971    4.4020   -9.0382 C   0  0  0  0  0  0  0  0  0  0  0  0
   -8.6181    3.2345   -9.7351 C   0  0  0  0  0  0  0  0  0  0  0  0
   -8.4932    3.1667  -11.1093 C   0  0  0  0  0  0  0  0  0  0  0  0
   -9.0970    2.2037   -8.7605 C   0  0  0  0  0  0  0  0  0  0  0  0
   -9.4379    3.0148   -7.5779 N   0  0  0  0  0  0  0  0  0  0  0  0
   -9.4662    2.2735   -6.3244 C   0  0  0  0  0  0  0  0  0  0  0  0
   -9.7220    3.1397   -5.0815 C   0  0  0  0  0  0  0  0  0  0  0  0
   -8.5869    3.8035   -4.7204 F   0  0  0  0  0  0  0  0  0  0  0  0
  -10.6555    4.0976   -5.3269 F   0  0  0  0  0  0  0  0  0  0  0  0
   -8.5475    4.1839   -7.5840 C   0  0  0  0  0  0  0  0  0  0  0  0
   -6.5356    5.1373  -16.4645 C   0  0  0  0  0  0  0  0  0  0  0  0
   -6.6577    4.6940  -17.7604 C   0  0  0  0  0  0  0  0  0  0  0  0
  1  2  1  0
  2  3  1  0
  2  4  1  0
  4  5  1  0
  5  6  2  0
  5  7  1  0
  7  8  1  0
  8  9  2  0
  9 10  1  0
 10 11  2  0
 11 12  1  0
 12 13  2  0
 12 14  1  0
 14 15  1  0
 15 16  2  0
 16 17  1  0
 17 18  2  0
 18 19  1  0
 19 20  2  0
 19 21  1  0
 21 22  1  0
 22 23  1  0
 23 24  1  0
 24 25  1  0
 24 26  1  0
 22 27  1  0
 11 28  1  0
 28 29  2  0
 29  4  1  0
 29  8  1  0
 20 15  1  0
 27 18  1  0
M  END
>  <name>  (103) 
P103851

>  <alias>  (103) 
None

>  <smina_score_min>  (103) 
-9.38

>  <exports>  (103) 
['/opt/xchem-fragalysis-2/maxwin/BulkDock/OUTPUTS/openbind_xx01zvns2b_c2_elabs_1LOUTNY.sdf', '/opt/xchem-fragalysis-2/maxwin/BulkDock/OUTPUTS/openbind_xx01zvns2b_c2_elabs_1LSYIIV.sdf']

>  <tags>  (103) 
syndirella_placed,openbind_xx01zvns2b_c2_elabs,openbind_xx01zvns2b_c2_elabs_scored_6.2plus,syndirella_product,openbind_xx01zvns2b_c2_elabs_scored,openbind_xx01zvns2b_c2_elabs_scored_top80percent,BulkDock Fragalysis export

>  <subsites>  (103) 
1 - Z4590/B/203/1

>  <smiles>  (103) 
CC(C)n1c(=O)[nH]c2ccc(C(=O)Nc3ccc4c(c3)CN(CC(F)F)C4)cc21

>  <HIPPO Pose ID>  (103) 
103851

>  <energy_score>  (103) 
-60.170168

>  <inchikey>  (103) 
DQMAIHCTECRQJU-UHFFFAOYSA-N

>  <gnina_score_min>  (103) 
6.228

>  <gnina_score>  (103) 
6.225

>  <ref_mols>  (103) 
Z4245a

>  <HIPPO Compound ID>  (103) 
163762

>  <distance_score>  (103) 
0.643808

>  <rmsd(smina/fragmenstein)>  (103) 
0.457

>  <ref_pdb>  (103) 
Z4245a

>  <inspiration_score>  (103) 
None

$$$$
P103859
     RDKit          3D

 29 32  0  0  0  0  0  0  0  0999 V2000
   -3.4370    5.0635  -18.2050 C   0  0  0  0  0  0  0  0  0  0  0  0
   -4.6720    5.7073  -18.8074 C   0  0  0  0  0  0  0  0  0  0  0  0
   -5.8343    4.8572  -18.7876 N   0  0  0  0  0  0  0  0  0  0  0  0
   -6.3810    4.1971  -19.9133 C   0  0  0  0  0  0  0  0  0  0  0  0
   -5.9016    4.0995  -21.0336 O   0  0  0  0  0  0  0  0  0  0  0  0
   -7.6016    3.6414  -19.4941 N   0  0  0  0  0  0  0  0  0  0  0  0
   -7.8046    3.9553  -18.1595 C   0  0  0  0  0  0  0  0  0  0  0  0
   -8.8821    3.6506  -17.3641 C   0  0  0  0  0  0  0  0  0  0  0  0
   -8.8182    4.0637  -16.0317 C   0  0  0  0  0  0  0  0  0  0  0  0
   -7.6948    4.7707  -15.5505 C   0  0  0  0  0  0  0  0  0  0  0  0
   -7.6669    5.3103  -14.1681 C   0  0  0  0  0  0  0  0  0  0  0  0
   -7.3390    6.4261  -14.0444 O   0  0  0  0  0  0  0  0  0  0  0  0
   -8.1297    4.2756  -13.1098 N   0  0  0  0  0  0  0  0  0  0  0  0
   -8.1916    4.3679  -11.7204 C   0  0  0  0  0  0  0  0  0  0  0  0
   -7.8397    5.5772  -11.0967 C   0  0  0  0  0  0  0  0  0  0  0  0
   -7.9024    5.7179   -9.7155 C   0  0  0  0  0  0  0  0  0  0  0  0
   -8.3068    4.6266   -8.9780 C   0  0  0  0  0  0  0  0  0  0  0  0
   -8.6576    3.4152   -9.5752 C   0  0  0  0  0  0  0  0  0  0  0  0
   -8.6098    3.2695  -10.9549 C   0  0  0  0  0  0  0  0  0  0  0  0
   -9.0943    2.4547   -8.5046 C   0  0  0  0  0  0  0  0  0  0  0  0
   -8.7008    3.1206   -7.2462 N   0  0  0  0  0  0  0  0  0  0  0  0
   -9.5270    2.8374   -6.0703 C   0  0  0  0  0  0  0  0  0  0  0  0
   -9.0732    3.5704   -4.7870 C   0  0  0  0  0  0  0  0  0  0  0  0
   -7.7463    3.4384   -4.5339 F   0  0  0  0  0  0  0  0  0  0  0  0
   -9.7446    3.1630   -3.6917 F   0  0  0  0  0  0  0  0  0  0  0  0
   -9.3148    4.9080   -4.8867 F   0  0  0  0  0  0  0  0  0  0  0  0
   -8.4905    4.5434   -7.5076 C   0  0  0  0  0  0  0  0  0  0  0  0
   -6.6245    5.1034  -16.3979 C   0  0  0  0  0  0  0  0  0  0  0  0
   -6.7052    4.6793  -17.7029 C   0  0  0  0  0  0  0  0  0  0  0  0
  1  2  1  0
  2  3  1  0
  3  4  1  0
  4  5  2  0
  4  6  1  0
  6  7  1  0
  7  8  2  0
  8  9  1  0
  9 10  2  0
 10 11  1  0
 11 12  2  0
 11 13  1  0
 13 14  1  0
 14 15  2  0
 15 16  1  0
 16 17  2  0
 17 18  1  0
 18 19  2  0
 18 20  1  0
 20 21  1  0
 21 22  1  0
 22 23  1  0
 23 24  1  0
 23 25  1  0
 23 26  1  0
 21 27  1  0
 10 28  1  0
 28 29  2  0
 29  3  1  0
 29  7  1  0
 19 14  1  0
 27 17  1  0
M  END
>  <name>  (104) 
P103859

>  <alias>  (104) 
None

>  <smina_score_min>  (104) 
-9.634

>  <exports>  (104) 
['/opt/xchem-fragalysis-2/maxwin/BulkDock/OUTPUTS/openbind_xx01zvns2b_c2_elabs_1LOUTNY.sdf', '/opt/xchem-fragalysis-2/maxwin/BulkDock/OUTPUTS/openbind_xx01zvns2b_c2_elabs_1LSYIIV.sdf']

>  <tags>  (104) 
syndirella_placed,openbind_xx01zvns2b_c2_elabs,openbind_xx01zvns2b_c2_elabs_scored_6.2plus,syndirella_product,openbind_xx01zvns2b_c2_elabs_scored,openbind_xx01zvns2b_c2_elabs_scored_top80percent,BulkDock Fragalysis export

>  <subsites>  (104) 
1 - Z4590/B/203/1

>  <smiles>  (104) 
CCn1c(=O)[nH]c2ccc(C(=O)Nc3ccc4c(c3)CN(CC(F)(F)F)C4)cc21

>  <HIPPO Pose ID>  (104) 
103859

>  <energy_score>  (104) 
-13.642839

>  <inchikey>  (104) 
MCPNSMBBFRTEPL-UHFFFAOYSA-N

>  <gnina_score_min>  (104) 
6.231

>  <gnina_score>  (104) 
6.061

>  <ref_mols>  (104) 
Z4245a

>  <HIPPO Compound ID>  (104) 
163772

>  <distance_score>  (104) 
0.646803

>  <rmsd(smina/fragmenstein)>  (104) 
0.563

>  <ref_pdb>  (104) 
Z4245a

>  <inspiration_score>  (104) 
None

$$$$
P103871
     RDKit          3D

 29 33  0  0  0  0  0  0  0  0999 V2000
   -7.0702    6.2578  -13.9298 O   0  0  0  0  0  0  0  0  0  0  0  0
   -7.4716    5.1666  -14.0608 C   0  0  0  0  0  0  0  0  0  0  0  0
   -7.9204    4.1253  -12.9997 N   0  0  0  0  0  0  0  0  0  0  0  0
   -8.0526    4.2419  -11.6140 C   0  0  0  0  0  0  0  0  0  0  0  0
   -7.7296    5.4782  -11.0147 C   0  0  0  0  0  0  0  0  0  0  0  0
   -7.9140    5.6910   -9.6552 C   0  0  0  0  0  0  0  0  0  0  0  0
   -8.3895    4.6290   -8.9217 C   0  0  0  0  0  0  0  0  0  0  0  0
   -8.6703    3.3959   -9.4684 C   0  0  0  0  0  0  0  0  0  0  0  0
   -8.5259    3.1729  -10.8321 C   0  0  0  0  0  0  0  0  0  0  0  0
   -9.2378    2.5873   -8.3794 C   0  0  0  0  0  0  0  0  0  0  0  0
   -9.7617    1.5063   -8.5638 O   0  0  0  0  0  0  0  0  0  0  0  0
   -9.1894    3.3562   -7.2298 N   0  0  0  0  0  0  0  0  0  0  0  0
   -9.9887    3.0227   -6.0650 C   0  0  0  0  0  0  0  0  0  0  0  0
   -9.4243    3.3748   -4.7142 C   0  0  0  0  0  0  0  0  0  0  0  0
   -9.3829    4.7747   -4.1493 C   0  0  0  0  0  0  0  0  0  0  0  0
   -8.0992    4.0562   -4.4549 C   0  0  0  0  0  0  0  0  0  0  0  0
   -8.8448    4.6353   -7.5491 C   0  0  0  0  0  0  0  0  0  0  0  0
   -8.9893    5.6872   -6.9514 O   0  0  0  0  0  0  0  0  0  0  0  0
   -7.5828    4.6759  -15.4540 C   0  0  0  0  0  0  0  0  0  0  0  0
   -8.7790    4.1011  -15.9258 C   0  0  0  0  0  0  0  0  0  0  0  0
   -8.9044    3.7763  -17.2744 C   0  0  0  0  0  0  0  0  0  0  0  0
  -10.0418    3.2694  -17.7525 F   0  0  0  0  0  0  0  0  0  0  0  0
   -7.8398    4.0063  -18.1052 C   0  0  0  0  0  0  0  0  0  0  0  0
   -7.6809    3.7307  -19.4567 N   0  0  0  0  0  0  0  0  0  0  0  0
   -6.4125    4.1694  -19.8564 C   0  0  0  0  0  0  0  0  0  0  0  0
   -5.9085    4.0663  -20.9625 O   0  0  0  0  0  0  0  0  0  0  0  0
   -5.7981    4.7149  -18.7131 N   0  0  0  0  0  0  0  0  0  0  0  0
   -6.6715    4.5922  -17.6392 C   0  0  0  0  0  0  0  0  0  0  0  0
   -6.5092    4.9466  -16.3226 C   0  0  0  0  0  0  0  0  0  0  0  0
  1  2  2  0
  2  3  1  0
  3  4  1  0
  4  5  2  0
  5  6  1  0
  6  7  2  0
  7  8  1  0
  8  9  2  0
  8 10  1  0
 10 11  2  0
 10 12  1  0
 12 13  1  0
 13 14  1  0
 14 15  1  0
 15 16  1  0
 12 17  1  0
 17 18  2  0
  2 19  1  0
 19 20  2  0
 20 21  1  0
 21 22  1  0
 21 23  2  0
 23 24  1  0
 24 25  1  0
 25 26  2  0
 25 27  1  0
 27 28  1  0
 28 29  2  0
  9  4  1  0
 16 14  1  0
 29 19  1  0
 17  7  1  0
 28 23  1  0
M  END
>  <name>  (105) 
P103871

>  <alias>  (105) 
None

>  <smina_score_min>  (105) 
-8.968

>  <exports>  (105) 
['/opt/xchem-fragalysis-2/maxwin/BulkDock/OUTPUTS/openbind_xx01zvns2b_c2_elabs_1LOUTNY.sdf', '/opt/xchem-fragalysis-2/maxwin/BulkDock/OUTPUTS/openbind_xx01zvns2b_c2_elabs_1LSYIIV.sdf']

>  <tags>  (105) 
syndirella_placed,openbind_xx01zvns2b_c2_elabs,openbind_xx01zvns2b_c2_elabs_scored_6.2plus,syndirella_product,openbind_xx01zvns2b_c2_elabs_scored,openbind_xx01zvns2b_c2_elabs_scored_top80percent,BulkDock Fragalysis export

>  <subsites>  (105) 
1 - Z4590/B/203/1

>  <smiles>  (105) 
O=C(Nc1ccc2c(c1)C(=O)N(CC1CC1)C2=O)c1cc(F)c2[nH]c(=O)[nH]c2c1

>  <HIPPO Pose ID>  (105) 
103871

>  <energy_score>  (105) 
-2.610867

>  <inchikey>  (105) 
COTWDOJKAGGHQN-UHFFFAOYSA-N

>  <gnina_score_min>  (105) 
6.234

>  <gnina_score>  (105) 
6.284

>  <ref_mols>  (105) 
Z4245a

>  <HIPPO Compound ID>  (105) 
163783

>  <distance_score>  (105) 
0.609926

>  <rmsd(smina/fragmenstein)>  (105) 
0.481

>  <ref_pdb>  (105) 
Z4245a

>  <inspiration_score>  (105) 
None

$$$$
P103886
     RDKit          3D

 29 32  0  0  0  0  0  0  0  0999 V2000
  -11.4402    2.0204   -5.3886 C   0  0  0  0  0  0  0  0  0  0  0  0
  -11.0115    3.3712   -5.4113 O   0  0  0  0  0  0  0  0  0  0  0  0
   -9.6440    3.5025   -5.0341 C   0  0  0  0  0  0  0  0  0  0  0  0
   -8.7008    2.7589   -5.9810 C   0  0  0  0  0  0  0  0  0  0  0  0
   -8.6886    3.3361   -7.2983 N   0  0  0  0  0  0  0  0  0  0  0  0
   -8.9149    2.5563   -8.5114 C   0  0  0  0  0  0  0  0  0  0  0  0
   -8.5258    3.5326   -9.5745 C   0  0  0  0  0  0  0  0  0  0  0  0
   -8.5081    3.4086  -10.9535 C   0  0  0  0  0  0  0  0  0  0  0  0
   -8.0442    4.5029  -11.7009 C   0  0  0  0  0  0  0  0  0  0  0  0
   -7.9545    4.4062  -13.0844 N   0  0  0  0  0  0  0  0  0  0  0  0
   -7.3039    5.3579  -14.1191 C   0  0  0  0  0  0  0  0  0  0  0  0
   -6.8103    6.4078  -13.9772 O   0  0  0  0  0  0  0  0  0  0  0  0
   -7.3961    4.8304  -15.5001 C   0  0  0  0  0  0  0  0  0  0  0  0
   -8.5881    4.2241  -15.9445 C   0  0  0  0  0  0  0  0  0  0  0  0
   -8.7214    3.8625  -17.2805 C   0  0  0  0  0  0  0  0  0  0  0  0
   -9.8868    3.3480  -17.7413 O   0  0  0  0  0  0  0  0  0  0  0  0
  -10.7424    4.4255  -18.1219 C   0  0  0  0  0  0  0  0  0  0  0  0
   -7.6573    4.0676  -18.1188 C   0  0  0  0  0  0  0  0  0  0  0  0
   -7.5187    3.7718  -19.4674 N   0  0  0  0  0  0  0  0  0  0  0  0
   -6.2694    4.2307  -19.8974 C   0  0  0  0  0  0  0  0  0  0  0  0
   -5.7934    4.1344  -21.0164 O   0  0  0  0  0  0  0  0  0  0  0  0
   -5.6379    4.7934  -18.7714 N   0  0  0  0  0  0  0  0  0  0  0  0
   -6.4919    4.6791  -17.6808 C   0  0  0  0  0  0  0  0  0  0  0  0
   -6.3263    5.0788  -16.3779 C   0  0  0  0  0  0  0  0  0  0  0  0
   -7.6527    5.6999  -11.0714 C   0  0  0  0  0  0  0  0  0  0  0  0
   -7.6762    5.8209   -9.6894 C   0  0  0  0  0  0  0  0  0  0  0  0
   -8.0996    4.7224   -8.9806 C   0  0  0  0  0  0  0  0  0  0  0  0
   -8.1402    4.5723   -7.5342 C   0  0  0  0  0  0  0  0  0  0  0  0
   -7.7203    5.3867   -6.7327 O   0  0  0  0  0  0  0  0  0  0  0  0
  1  2  1  0
  2  3  1  0
  3  4  1  0
  4  5  1  0
  5  6  1  0
  6  7  1  0
  7  8  2  0
  8  9  1  0
  9 10  1  0
 10 11  1  0
 11 12  2  0
 11 13  1  0
 13 14  2  0
 14 15  1  0
 15 16  1  0
 16 17  1  0
 15 18  2  0
 18 19  1  0
 19 20  1  0
 20 21  2  0
 20 22  1  0
 22 23  1  0
 23 24  2  0
  9 25  2  0
 25 26  1  0
 26 27  2  0
 27 28  1  0
 28 29  2  0
 28  5  1  0
 27  7  1  0
 24 13  1  0
 23 18  1  0
M  END
>  <name>  (106) 
P103886

>  <alias>  (106) 
None

>  <smina_score_min>  (106) 
-7.683

>  <exports>  (106) 
['/opt/xchem-fragalysis-2/maxwin/BulkDock/OUTPUTS/openbind_xx01zvns2b_c2_elabs_1LOUTNY.sdf', '/opt/xchem-fragalysis-2/maxwin/BulkDock/OUTPUTS/openbind_xx01zvns2b_c2_elabs_1LSYIIV.sdf']

>  <tags>  (106) 
syndirella_placed,openbind_xx01zvns2b_c2_elabs,openbind_xx01zvns2b_c2_elabs_scored_6.2plus,syndirella_product,openbind_xx01zvns2b_c2_elabs_scored,openbind_xx01zvns2b_c2_elabs_scored_top80percent,BulkDock Fragalysis export

>  <subsites>  (106) 
1 - Z4590/B/203/1

>  <smiles>  (106) 
COCCN1Cc2cc(NC(=O)c3cc(OC)c4[nH]c(=O)[nH]c4c3)ccc2C1=O

>  <HIPPO Pose ID>  (106) 
103886

>  <energy_score>  (106) 
-24.804886

>  <inchikey>  (106) 
DTMUENJUIWCNBV-UHFFFAOYSA-N

>  <gnina_score_min>  (106) 
6.218

>  <gnina_score>  (106) 
5.88

>  <ref_mols>  (106) 
Z4245a

>  <HIPPO Compound ID>  (106) 
163806

>  <distance_score>  (106) 
0.729856

>  <rmsd(smina/fragmenstein)>  (106) 
1.023

>  <ref_pdb>  (106) 
Z4245a

>  <inspiration_score>  (106) 
None

$$$$
P103894
     RDKit          3D

 29 32  0  0  0  0  0  0  0  0999 V2000
   -7.1120    6.0943   -4.0133 C   0  0  0  0  0  0  0  0  0  0  0  0
   -8.4663    5.9604   -3.3401 C   0  0  0  0  0  0  0  0  0  0  0  0
   -9.3768    5.2009   -4.1313 O   0  0  0  0  0  0  0  0  0  0  0  0
   -9.1649    3.7882   -4.0322 C   0  0  0  0  0  0  0  0  0  0  0  0
  -10.2508    3.0517   -4.8032 C   0  0  0  0  0  0  0  0  0  0  0  0
  -10.2595    3.2696   -6.3116 C   0  0  0  0  0  0  0  0  0  0  0  0
   -8.9772    2.9870   -6.9564 N   0  0  0  0  0  0  0  0  0  0  0  0
   -8.2145    4.2365   -7.1801 C   0  0  0  0  0  0  0  0  0  0  0  0
   -8.1634    4.4468   -8.6532 C   0  0  0  0  0  0  0  0  0  0  0  0
   -7.6703    5.5344   -9.3443 C   0  0  0  0  0  0  0  0  0  0  0  0
   -7.6248    5.4620  -10.7351 C   0  0  0  0  0  0  0  0  0  0  0  0
   -8.0660    4.3158  -11.4165 C   0  0  0  0  0  0  0  0  0  0  0  0
   -7.9167    4.2399  -12.8023 N   0  0  0  0  0  0  0  0  0  0  0  0
   -7.2398    5.2181  -13.7973 C   0  0  0  0  0  0  0  0  0  0  0  0
   -6.6355    6.2002  -13.6020 O   0  0  0  0  0  0  0  0  0  0  0  0
   -7.3715    4.7903  -15.2134 C   0  0  0  0  0  0  0  0  0  0  0  0
   -8.6238    4.4115  -15.7375 C   0  0  0  0  0  0  0  0  0  0  0  0
   -8.7663    4.1863  -17.1085 C   0  0  0  0  0  0  0  0  0  0  0  0
  -10.3051    3.9694  -17.8044 Cl  0  0  0  0  0  0  0  0  0  0  0  0
   -7.6505    4.2854  -17.9034 C   0  0  0  0  0  0  0  0  0  0  0  0
   -7.4958    4.0993  -19.2731 N   0  0  0  0  0  0  0  0  0  0  0  0
   -6.1765    4.3956  -19.6259 C   0  0  0  0  0  0  0  0  0  0  0  0
   -5.6722    4.3335  -20.7345 O   0  0  0  0  0  0  0  0  0  0  0  0
   -5.5190    4.7565  -18.4358 N   0  0  0  0  0  0  0  0  0  0  0  0
   -6.4242    4.6734  -17.3833 C   0  0  0  0  0  0  0  0  0  0  0  0
   -6.2499    4.9435  -16.0480 C   0  0  0  0  0  0  0  0  0  0  0  0
   -8.6079    3.2392  -10.7017 C   0  0  0  0  0  0  0  0  0  0  0  0
   -8.6468    3.3247   -9.3133 C   0  0  0  0  0  0  0  0  0  0  0  0
   -9.1080    2.3269   -8.2944 C   0  0  0  0  0  0  0  0  0  0  0  0
  1  2  1  0
  2  3  1  0
  3  4  1  0
  4  5  1  0
  5  6  1  0
  6  7  1  0
  7  8  1  0
  8  9  1  0
  9 10  2  0
 10 11  1  0
 11 12  2  0
 12 13  1  0
 13 14  1  0
 14 15  2  0
 14 16  1  0
 16 17  2  0
 17 18  1  0
 18 19  1  0
 18 20  2  0
 20 21  1  0
 21 22  1  0
 22 23  2  0
 22 24  1  0
 24 25  1  0
 25 26  2  0
 12 27  1  0
 27 28  2  0
 28 29  1  0
 29  7  1  0
 28  9  1  0
 26 16  1  0
 25 20  1  0
M  END
>  <name>  (107) 
P103894

>  <alias>  (107) 
None

>  <smina_score_min>  (107) 
-7.563

>  <exports>  (107) 
['/opt/xchem-fragalysis-2/maxwin/BulkDock/OUTPUTS/openbind_xx01zvns2b_c2_elabs_1LOUTNY.sdf', '/opt/xchem-fragalysis-2/maxwin/BulkDock/OUTPUTS/openbind_xx01zvns2b_c2_elabs_1LSYIIV.sdf']

>  <tags>  (107) 
syndirella_placed,openbind_xx01zvns2b_c2_elabs,openbind_xx01zvns2b_c2_elabs_scored_6.2plus,syndirella_product,openbind_xx01zvns2b_c2_elabs_scored,openbind_xx01zvns2b_c2_elabs_scored_top80percent,BulkDock Fragalysis export

>  <subsites>  (107) 
1 - Z4590/B/203/1

>  <smiles>  (107) 
CCOCCCN1Cc2ccc(NC(=O)c3cc(Cl)c4[nH]c(=O)[nH]c4c3)cc2C1

>  <HIPPO Pose ID>  (107) 
103894

>  <energy_score>  (107) 
-38.339261

>  <inchikey>  (107) 
FCWSKSZNVITCMH-UHFFFAOYSA-N

>  <gnina_score_min>  (107) 
6.22

>  <gnina_score>  (107) 
6.268

>  <ref_mols>  (107) 
Z4245a

>  <HIPPO Compound ID>  (107) 
163818

>  <distance_score>  (107) 
0.554705

>  <rmsd(smina/fragmenstein)>  (107) 
0.519

>  <ref_pdb>  (107) 
Z4245a

>  <inspiration_score>  (107) 
None

$$$$
P103895
     RDKit          3D

 29 33  0  0  0  0  0  0  0  0999 V2000
   -6.6777    6.1814  -13.7742 O   0  0  0  0  0  0  0  0  0  0  0  0
   -7.2252    5.1598  -13.9322 C   0  0  0  0  0  0  0  0  0  0  0  0
   -7.9402    4.2336  -12.9126 N   0  0  0  0  0  0  0  0  0  0  0  0
   -8.0427    4.3235  -11.5257 C   0  0  0  0  0  0  0  0  0  0  0  0
   -7.6773    5.5528  -10.9353 C   0  0  0  0  0  0  0  0  0  0  0  0
   -7.8243    5.7703   -9.5772 C   0  0  0  0  0  0  0  0  0  0  0  0
   -8.3145    4.7198   -8.8406 C   0  0  0  0  0  0  0  0  0  0  0  0
   -8.6537    3.4936   -9.3763 C   0  0  0  0  0  0  0  0  0  0  0  0
   -8.5435    3.2674  -10.7422 C   0  0  0  0  0  0  0  0  0  0  0  0
   -9.1914    2.6969   -8.2575 C   0  0  0  0  0  0  0  0  0  0  0  0
   -9.7331    1.6194   -8.4010 O   0  0  0  0  0  0  0  0  0  0  0  0
   -9.0589    3.4693   -7.1216 N   0  0  0  0  0  0  0  0  0  0  0  0
   -9.6629    3.1637   -5.8389 C   0  0  0  0  0  0  0  0  0  0  0  0
   -8.7537    3.5768   -4.7060 C   0  0  0  0  0  0  0  0  0  0  0  0
   -9.3288    3.8580   -3.3375 C   0  0  0  0  0  0  0  0  0  0  0  0
   -8.7190    4.9737   -4.1182 C   0  0  0  0  0  0  0  0  0  0  0  0
   -8.6777    4.7347   -7.4457 C   0  0  0  0  0  0  0  0  0  0  0  0
   -8.7053    5.7761   -6.8150 O   0  0  0  0  0  0  0  0  0  0  0  0
   -7.3554    4.7022  -15.3306 C   0  0  0  0  0  0  0  0  0  0  0  0
   -8.6227    4.3440  -15.8300 C   0  0  0  0  0  0  0  0  0  0  0  0
   -8.7938    4.1304  -17.1960 C   0  0  0  0  0  0  0  0  0  0  0  0
  -10.3549    3.9710  -17.8521 Cl  0  0  0  0  0  0  0  0  0  0  0  0
   -7.6900    4.2115  -18.0086 C   0  0  0  0  0  0  0  0  0  0  0  0
   -7.5572    4.0078  -19.3770 N   0  0  0  0  0  0  0  0  0  0  0  0
   -6.2438    4.3019  -19.7546 C   0  0  0  0  0  0  0  0  0  0  0  0
   -5.7564    4.2245  -20.8698 O   0  0  0  0  0  0  0  0  0  0  0  0
   -5.5665    4.6755  -18.5800 N   0  0  0  0  0  0  0  0  0  0  0  0
   -6.4519    4.5951  -17.5117 C   0  0  0  0  0  0  0  0  0  0  0  0
   -6.2494    4.8610  -16.1810 C   0  0  0  0  0  0  0  0  0  0  0  0
  1  2  2  0
  2  3  1  0
  3  4  1  0
  4  5  2  0
  5  6  1  0
  6  7  2  0
  7  8  1  0
  8  9  2  0
  8 10  1  0
 10 11  2  0
 10 12  1  0
 12 13  1  0
 13 14  1  0
 14 15  1  0
 15 16  1  0
 12 17  1  0
 17 18  2  0
  2 19  1  0
 19 20  2  0
 20 21  1  0
 21 22  1  0
 21 23  2  0
 23 24  1  0
 24 25  1  0
 25 26  2  0
 25 27  1  0
 27 28  1  0
 28 29  2  0
  9  4  1  0
 16 14  1  0
 29 19  1  0
 17  7  1  0
 28 23  1  0
M  END
>  <name>  (108) 
P103895

>  <alias>  (108) 
None

>  <smina_score_min>  (108) 
-8.656

>  <exports>  (108) 
['/opt/xchem-fragalysis-2/maxwin/BulkDock/OUTPUTS/openbind_xx01zvns2b_c2_elabs_1LOUTNY.sdf', '/opt/xchem-fragalysis-2/maxwin/BulkDock/OUTPUTS/openbind_xx01zvns2b_c2_elabs_1LSYIIV.sdf']

>  <tags>  (108) 
syndirella_placed,openbind_xx01zvns2b_c2_elabs,openbind_xx01zvns2b_c2_elabs_scored_6.2plus,syndirella_product,openbind_xx01zvns2b_c2_elabs_scored,openbind_xx01zvns2b_c2_elabs_scored_top80percent,BulkDock Fragalysis export

>  <subsites>  (108) 
1 - Z4590/B/203/1

>  <smiles>  (108) 
O=C(Nc1ccc2c(c1)C(=O)N(CC1CC1)C2=O)c1cc(Cl)c2[nH]c(=O)[nH]c2c1

>  <HIPPO Pose ID>  (108) 
103895

>  <energy_score>  (108) 
-24.703475

>  <inchikey>  (108) 
IPKDNYDJIGUWRJ-UHFFFAOYSA-N

>  <gnina_score_min>  (108) 
6.31

>  <gnina_score>  (108) 
6.298

>  <ref_mols>  (108) 
Z4245a

>  <HIPPO Compound ID>  (108) 
163819

>  <distance_score>  (108) 
0.639794

>  <rmsd(smina/fragmenstein)>  (108) 
0.451

>  <ref_pdb>  (108) 
Z4245a

>  <inspiration_score>  (108) 
None

$$$$
P103933
     RDKit          3D

 30 33  0  0  0  0  0  0  0  0999 V2000
   -9.5530    3.5755   -4.1854 C   0  0  0  0  0  0  0  0  0  0  0  0
  -10.5017    3.0830   -5.2833 C   0  0  0  0  0  0  0  0  0  0  0  0
  -11.7634    2.4964   -4.7018 C   0  0  0  0  0  0  0  0  0  0  0  0
  -10.8059    4.2357   -6.0651 O   0  0  0  0  0  0  0  0  0  0  0  0
  -10.0237    1.9550   -6.1847 C   0  0  0  0  0  0  0  0  0  0  0  0
   -8.6438    2.1321   -6.7078 C   0  0  0  0  0  0  0  0  0  0  0  0
   -8.6253    3.0297   -7.8114 N   0  0  0  0  0  0  0  0  0  0  0  0
   -8.0583    4.3523   -7.7500 C   0  0  0  0  0  0  0  0  0  0  0  0
   -8.0098    4.7124   -9.1901 C   0  0  0  0  0  0  0  0  0  0  0  0
   -7.4674    5.8171   -9.8052 C   0  0  0  0  0  0  0  0  0  0  0  0
   -7.4044    5.8093  -11.2002 C   0  0  0  0  0  0  0  0  0  0  0  0
   -7.8830    4.7119  -11.9382 C   0  0  0  0  0  0  0  0  0  0  0  0
   -7.7107    4.6176  -13.3026 N   0  0  0  0  0  0  0  0  0  0  0  0
   -7.0266    5.5768  -14.2928 C   0  0  0  0  0  0  0  0  0  0  0  0
   -6.4328    6.5614  -14.1033 O   0  0  0  0  0  0  0  0  0  0  0  0
   -7.2182    5.0809  -15.6693 C   0  0  0  0  0  0  0  0  0  0  0  0
   -8.5016    4.6419  -16.0633 C   0  0  0  0  0  0  0  0  0  0  0  0
   -8.7225    4.2241  -17.3669 C   0  0  0  0  0  0  0  0  0  0  0  0
  -10.3080    3.9333  -17.8960 Cl  0  0  0  0  0  0  0  0  0  0  0  0
   -7.6525    4.2170  -18.2227 C   0  0  0  0  0  0  0  0  0  0  0  0
   -7.5678    3.8384  -19.5566 N   0  0  0  0  0  0  0  0  0  0  0  0
   -6.2915    4.1538  -20.0306 C   0  0  0  0  0  0  0  0  0  0  0  0
   -5.8618    3.9961  -21.1606 O   0  0  0  0  0  0  0  0  0  0  0  0
   -5.5713    4.6704  -18.9411 N   0  0  0  0  0  0  0  0  0  0  0  0
   -6.4050    4.6964  -17.8326 C   0  0  0  0  0  0  0  0  0  0  0  0
   -6.1463    5.1376  -16.5614 C   0  0  0  0  0  0  0  0  0  0  0  0
   -8.5072    3.6395  -11.3192 C   0  0  0  0  0  0  0  0  0  0  0  0
   -8.5519    3.6780   -9.9526 C   0  0  0  0  0  0  0  0  0  0  0  0
   -9.0234    2.6369   -9.0644 C   0  0  0  0  0  0  0  0  0  0  0  0
   -9.6168    1.6420   -9.4215 O   0  0  0  0  0  0  0  0  0  0  0  0
  1  2  1  0
  2  3  1  0
  2  4  1  0
  2  5  1  0
  5  6  1  0
  6  7  1  0
  7  8  1  0
  8  9  1  0
  9 10  2  0
 10 11  1  0
 11 12  2  0
 12 13  1  0
 13 14  1  0
 14 15  2  0
 14 16  1  0
 16 17  2  0
 17 18  1  0
 18 19  1  0
 18 20  2  0
 20 21  1  0
 21 22  1  0
 22 23  2  0
 22 24  1  0
 24 25  1  0
 25 26  2  0
 12 27  1  0
 27 28  2  0
 28 29  1  0
 29 30  2  0
 29  7  1  0
 28  9  1  0
 26 16  1  0
 25 20  1  0
M  END
>  <name>  (109) 
P103933

>  <alias>  (109) 
None

>  <smina_score_min>  (109) 
-8.279

>  <exports>  (109) 
['/opt/xchem-fragalysis-2/maxwin/BulkDock/OUTPUTS/openbind_xx01zvns2b_c2_elabs_1LOUTNY.sdf', '/opt/xchem-fragalysis-2/maxwin/BulkDock/OUTPUTS/openbind_xx01zvns2b_c2_elabs_1LSYIIV.sdf']

>  <tags>  (109) 
syndirella_placed,openbind_xx01zvns2b_c2_elabs,openbind_xx01zvns2b_c2_elabs_scored_6.2plus,syndirella_product,openbind_xx01zvns2b_c2_elabs_scored,openbind_xx01zvns2b_c2_elabs_scored_top80percent,BulkDock Fragalysis export

>  <subsites>  (109) 
1 - Z4590/B/203/1

>  <smiles>  (109) 
CC(C)(O)CCN1Cc2ccc(NC(=O)c3cc(Cl)c4[nH]c(=O)[nH]c4c3)cc2C1=O

>  <HIPPO Pose ID>  (109) 
103933

>  <energy_score>  (109) 
-24.428902

>  <inchikey>  (109) 
RDHHAKXLGPCDEB-UHFFFAOYSA-N

>  <gnina_score_min>  (109) 
6.246

>  <gnina_score>  (109) 
6.214

>  <ref_mols>  (109) 
Z4245a

>  <HIPPO Compound ID>  (109) 
163867

>  <distance_score>  (109) 
0.931001

>  <rmsd(smina/fragmenstein)>  (109) 
1.182

>  <ref_pdb>  (109) 
Z4245a

>  <inspiration_score>  (109) 
None

$$$$
P103958
     RDKit          3D

 30 34  0  0  0  0  0  0  0  0999 V2000
   -9.3922    2.0616   -6.3505 C   0  0  0  0  0  0  0  0  0  0  0  0
   -9.5116    2.8552   -7.5498 N   0  0  0  0  0  0  0  0  0  0  0  0
   -8.6795    4.0731   -7.5315 C   0  0  0  0  0  0  0  0  0  0  0  0
   -8.4207    4.3422   -8.9797 C   0  0  0  0  0  0  0  0  0  0  0  0
   -8.0049    5.4979   -9.6118 C   0  0  0  0  0  0  0  0  0  0  0  0
   -7.8550    5.4717  -11.0039 C   0  0  0  0  0  0  0  0  0  0  0  0
   -8.1057    4.2985  -11.7340 C   0  0  0  0  0  0  0  0  0  0  0  0
   -7.9708    4.2521  -13.1199 N   0  0  0  0  0  0  0  0  0  0  0  0
   -7.5712    5.3562  -14.1287 C   0  0  0  0  0  0  0  0  0  0  0  0
   -7.2183    6.4553  -13.9481 O   0  0  0  0  0  0  0  0  0  0  0  0
   -7.6541    4.8580  -15.5318 C   0  0  0  0  0  0  0  0  0  0  0  0
   -8.7703    4.1065  -15.9664 C   0  0  0  0  0  0  0  0  0  0  0  0
   -8.8554    3.6480  -17.2825 C   0  0  0  0  0  0  0  0  0  0  0  0
   -7.8052    3.9507  -18.1123 C   0  0  0  0  0  0  0  0  0  0  0  0
   -7.6232    3.5896  -19.4377 N   0  0  0  0  0  0  0  0  0  0  0  0
   -6.4485    4.1895  -19.9137 C   0  0  0  0  0  0  0  0  0  0  0  0
   -6.0076    4.0850  -21.0499 O   0  0  0  0  0  0  0  0  0  0  0  0
   -5.8994    4.9223  -18.8335 N   0  0  0  0  0  0  0  0  0  0  0  0
   -5.0649    6.0756  -19.0457 C   0  0  0  0  0  0  0  0  0  0  0  0
   -3.6988    6.0023  -18.4220 C   0  0  0  0  0  0  0  0  0  0  0  0
   -2.7138    5.1832  -18.9864 C   0  0  0  0  0  0  0  0  0  0  0  0
   -1.4200    5.1824  -18.4690 C   0  0  0  0  0  0  0  0  0  0  0  0
   -1.1004    5.9812  -17.3727 C   0  0  0  0  0  0  0  0  0  0  0  0
   -2.0766    6.7834  -16.7894 C   0  0  0  0  0  0  0  0  0  0  0  0
   -3.3683    6.7999  -17.3158 C   0  0  0  0  0  0  0  0  0  0  0  0
   -6.7289    4.7400  -17.7132 C   0  0  0  0  0  0  0  0  0  0  0  0
   -6.6293    5.2103  -16.4230 C   0  0  0  0  0  0  0  0  0  0  0  0
   -8.5099    3.1328  -11.0757 C   0  0  0  0  0  0  0  0  0  0  0  0
   -8.6720    3.1768   -9.7034 C   0  0  0  0  0  0  0  0  0  0  0  0
   -9.1104    2.1015   -8.7611 C   0  0  0  0  0  0  0  0  0  0  0  0
  1  2  1  0
  2  3  1  0
  3  4  1  0
  4  5  2  0
  5  6  1  0
  6  7  2  0
  7  8  1  0
  8  9  1  0
  9 10  2  0
  9 11  1  0
 11 12  2  0
 12 13  1  0
 13 14  2  0
 14 15  1  0
 15 16  1  0
 16 17  2  0
 16 18  1  0
 18 19  1  0
 19 20  1  0
 20 21  2  0
 21 22  1  0
 22 23  2  0
 23 24  1  0
 24 25  2  0
 18 26  1  0
 26 27  2  0
  7 28  1  0
 28 29  2  0
 29 30  1  0
 30  2  1  0
 29  4  1  0
 27 11  1  0
 26 14  1  0
 25 20  1  0
M  END
>  <name>  (110) 
P103958

>  <alias>  (110) 
None

>  <smina_score_min>  (110) 
-9.517

>  <exports>  (110) 
['/opt/xchem-fragalysis-2/maxwin/BulkDock/OUTPUTS/openbind_xx01zvns2b_c2_elabs_1LOUTNY.sdf', '/opt/xchem-fragalysis-2/maxwin/BulkDock/OUTPUTS/openbind_xx01zvns2b_c2_elabs_1LSYIIV.sdf']

>  <tags>  (110) 
syndirella_placed,openbind_xx01zvns2b_c2_elabs,openbind_xx01zvns2b_c2_elabs_scored_6.2plus,syndirella_product,openbind_xx01zvns2b_c2_elabs_scored,openbind_xx01zvns2b_c2_elabs_scored_top80percent,BulkDock Fragalysis export

>  <subsites>  (110) 
1 - Z4590/B/203/1

>  <smiles>  (110) 
CN1Cc2ccc(NC(=O)c3ccc4[nH]c(=O)n(Cc5ccccc5)c4c3)cc2C1

>  <HIPPO Pose ID>  (110) 
103958

>  <energy_score>  (110) 
-42.290425

>  <inchikey>  (110) 
WINJYGYSJOMMJY-UHFFFAOYSA-N

>  <gnina_score_min>  (110) 
6.243

>  <gnina_score>  (110) 
6.191

>  <ref_mols>  (110) 
Z4245a

>  <HIPPO Compound ID>  (110) 
163916

>  <distance_score>  (110) 
0.604893

>  <rmsd(smina/fragmenstein)>  (110) 
0.398

>  <ref_pdb>  (110) 
Z4245a

>  <inspiration_score>  (110) 
None

$$$$
P103959
     RDKit          3D

 30 34  0  0  0  0  0  0  0  0999 V2000
   -7.3226    6.4221  -13.8323 O   0  0  0  0  0  0  0  0  0  0  0  0
   -7.6430    5.3128  -14.0175 C   0  0  0  0  0  0  0  0  0  0  0  0
   -8.0180    4.1930  -13.0108 N   0  0  0  0  0  0  0  0  0  0  0  0
   -8.1630    4.2330  -11.6211 C   0  0  0  0  0  0  0  0  0  0  0  0
   -7.9775    5.4243  -10.8961 C   0  0  0  0  0  0  0  0  0  0  0  0
   -8.1160    5.4465   -9.5022 C   0  0  0  0  0  0  0  0  0  0  0  0
   -8.4387    4.2607   -8.8710 C   0  0  0  0  0  0  0  0  0  0  0  0
   -8.6262    3.0708   -9.5678 C   0  0  0  0  0  0  0  0  0  0  0  0
   -8.4930    3.0440  -10.9490 C   0  0  0  0  0  0  0  0  0  0  0  0
   -8.9359    1.9683   -8.6087 C   0  0  0  0  0  0  0  0  0  0  0  0
   -9.0075    2.6643   -7.3404 N   0  0  0  0  0  0  0  0  0  0  0  0
   -8.6414    3.9882   -7.4418 C   0  0  0  0  0  0  0  0  0  0  0  0
   -8.5028    4.7926   -6.5397 O   0  0  0  0  0  0  0  0  0  0  0  0
   -7.6964    4.8251  -15.4293 C   0  0  0  0  0  0  0  0  0  0  0  0
   -8.8011    4.0739  -15.8873 C   0  0  0  0  0  0  0  0  0  0  0  0
   -8.8734    3.6377  -17.2128 C   0  0  0  0  0  0  0  0  0  0  0  0
   -7.8204    3.9584  -18.0316 C   0  0  0  0  0  0  0  0  0  0  0  0
   -7.6301    3.6172  -19.3613 N   0  0  0  0  0  0  0  0  0  0  0  0
   -6.4551    4.2266  -19.8217 C   0  0  0  0  0  0  0  0  0  0  0  0
   -6.0038    4.1380  -20.9552 O   0  0  0  0  0  0  0  0  0  0  0  0
   -5.9163    4.9506  -18.7270 N   0  0  0  0  0  0  0  0  0  0  0  0
   -5.1105    6.1250  -18.9338 C   0  0  0  0  0  0  0  0  0  0  0  0
   -3.7879    6.1337  -18.2184 C   0  0  0  0  0  0  0  0  0  0  0  0
   -2.7515    5.2978  -18.6501 C   0  0  0  0  0  0  0  0  0  0  0  0
   -1.5004    5.3616  -18.0399 C   0  0  0  0  0  0  0  0  0  0  0  0
   -1.2760    6.2390  -16.9805 C   0  0  0  0  0  0  0  0  0  0  0  0
   -2.3039    7.0638  -16.5335 C   0  0  0  0  0  0  0  0  0  0  0  0
   -3.5518    7.0179  -17.1547 C   0  0  0  0  0  0  0  0  0  0  0  0
   -6.7527    4.7483  -17.6128 C   0  0  0  0  0  0  0  0  0  0  0  0
   -6.6683    5.1991  -16.3115 C   0  0  0  0  0  0  0  0  0  0  0  0
  1  2  2  0
  2  3  1  0
  3  4  1  0
  4  5  2  0
  5  6  1  0
  6  7  2  0
  7  8  1  0
  8  9  2  0
  8 10  1  0
 10 11  1  0
 11 12  1  0
 12 13  2  0
  2 14  1  0
 14 15  2  0
 15 16  1  0
 16 17  2  0
 17 18  1  0
 18 19  1  0
 19 20  2  0
 19 21  1  0
 21 22  1  0
 22 23  1  0
 23 24  2  0
 24 25  1  0
 25 26  2  0
 26 27  1  0
 27 28  2  0
 21 29  1  0
 29 30  2  0
  9  4  1  0
 30 14  1  0
 12  7  1  0
 29 17  1  0
 28 23  1  0
M  END
>  <name>  (111) 
P103959

>  <alias>  (111) 
None

>  <smina_score_min>  (111) 
-9.704

>  <exports>  (111) 
['/opt/xchem-fragalysis-2/maxwin/BulkDock/OUTPUTS/openbind_xx01zvns2b_c2_elabs_1LOUTNY.sdf', '/opt/xchem-fragalysis-2/maxwin/BulkDock/OUTPUTS/openbind_xx01zvns2b_c2_elabs_1LSYIIV.sdf']

>  <tags>  (111) 
syndirella_placed,openbind_xx01zvns2b_c2_elabs,openbind_xx01zvns2b_c2_elabs_scored_6.2plus,syndirella_product,openbind_xx01zvns2b_c2_elabs_scored,openbind_xx01zvns2b_c2_elabs_scored_top80percent,BulkDock Fragalysis export

>  <subsites>  (111) 
1 - Z4590/B/203/1

>  <smiles>  (111) 
O=C(Nc1ccc2c(c1)CNC2=O)c1ccc2[nH]c(=O)n(Cc3ccccc3)c2c1

>  <HIPPO Pose ID>  (111) 
103959

>  <energy_score>  (111) 
-7.640627

>  <inchikey>  (111) 
MYBKIUVRWHAHOT-UHFFFAOYSA-N

>  <gnina_score_min>  (111) 
6.224

>  <gnina_score>  (111) 
6.155

>  <ref_mols>  (111) 
Z4245a

>  <HIPPO Compound ID>  (111) 
163917

>  <distance_score>  (111) 
0.504226

>  <rmsd(smina/fragmenstein)>  (111) 
0.53

>  <ref_pdb>  (111) 
Z4245a

>  <inspiration_score>  (111) 
None

$$$$
P103970
     RDKit          3D

 30 33  0  0  0  0  0  0  0  0999 V2000
   -9.0354    4.7897   -1.9261 C   0  0  0  0  0  0  0  0  0  0  0  0
   -9.0005    5.4769   -3.1698 O   0  0  0  0  0  0  0  0  0  0  0  0
   -9.5876    4.7288   -4.2364 C   0  0  0  0  0  0  0  0  0  0  0  0
   -8.6335    3.6967   -4.8081 C   0  0  0  0  0  0  0  0  0  0  0  0
   -9.2354    2.9739   -6.0300 C   0  0  0  0  0  0  0  0  0  0  0  0
   -8.5469    3.3526   -7.2456 N   0  0  0  0  0  0  0  0  0  0  0  0
   -8.5201    4.7769   -7.5460 C   0  0  0  0  0  0  0  0  0  0  0  0
   -8.3595    4.8292   -9.0211 C   0  0  0  0  0  0  0  0  0  0  0  0
   -8.0414    5.9239   -9.7927 C   0  0  0  0  0  0  0  0  0  0  0  0
   -7.9382    5.7349  -11.1645 C   0  0  0  0  0  0  0  0  0  0  0  0
   -8.1681    4.4752  -11.7454 C   0  0  0  0  0  0  0  0  0  0  0  0
   -8.0268    4.3322  -13.1236 N   0  0  0  0  0  0  0  0  0  0  0  0
   -7.5837    5.3534  -14.2007 C   0  0  0  0  0  0  0  0  0  0  0  0
   -7.1946    6.4504  -14.0903 O   0  0  0  0  0  0  0  0  0  0  0  0
   -7.6438    4.7957  -15.5732 C   0  0  0  0  0  0  0  0  0  0  0  0
   -8.7820    4.0958  -16.0264 C   0  0  0  0  0  0  0  0  0  0  0  0
   -8.8681    3.6706  -17.3535 C   0  0  0  0  0  0  0  0  0  0  0  0
   -7.7956    3.9508  -18.1671 C   0  0  0  0  0  0  0  0  0  0  0  0
   -7.6184    3.6230  -19.5006 N   0  0  0  0  0  0  0  0  0  0  0  0
   -6.3994    4.1582  -19.9467 C   0  0  0  0  0  0  0  0  0  0  0  0
   -5.9600    4.0575  -21.0832 O   0  0  0  0  0  0  0  0  0  0  0  0
   -5.8065    4.8028  -18.8311 N   0  0  0  0  0  0  0  0  0  0  0  0
   -4.6655    5.7026  -18.8759 C   0  0  0  0  0  0  0  0  0  0  0  0
   -3.4079    5.0441  -19.4422 C   0  0  0  0  0  0  0  0  0  0  0  0
   -5.0077    6.9704  -19.6616 C   0  0  0  0  0  0  0  0  0  0  0  0
   -6.6776    4.6608  -17.7356 C   0  0  0  0  0  0  0  0  0  0  0  0
   -6.5788    5.0996  -16.4370 C   0  0  0  0  0  0  0  0  0  0  0  0
   -8.5187    3.3760  -10.9485 C   0  0  0  0  0  0  0  0  0  0  0  0
   -8.5993    3.5700   -9.5769 C   0  0  0  0  0  0  0  0  0  0  0  0
   -8.9414    2.6152   -8.4677 C   0  0  0  0  0  0  0  0  0  0  0  0
  1  2  1  0
  2  3  1  0
  3  4  1  0
  4  5  1  0
  5  6  1  0
  6  7  1  0
  7  8  1  0
  8  9  2  0
  9 10  1  0
 10 11  2  0
 11 12  1  0
 12 13  1  0
 13 14  2  0
 13 15  1  0
 15 16  2  0
 16 17  1  0
 17 18  2  0
 18 19  1  0
 19 20  1  0
 20 21  2  0
 20 22  1  0
 22 23  1  0
 23 24  1  0
 23 25  1  0
 22 26  1  0
 26 27  2  0
 11 28  1  0
 28 29  2  0
 29 30  1  0
 30  6  1  0
 29  8  1  0
 27 15  1  0
 26 18  1  0
M  END
>  <name>  (112) 
P103970

>  <alias>  (112) 
None

>  <smina_score_min>  (112) 
-8.695

>  <exports>  (112) 
['/opt/xchem-fragalysis-2/maxwin/BulkDock/OUTPUTS/openbind_xx01zvns2b_c2_elabs_1LOUTNY.sdf', '/opt/xchem-fragalysis-2/maxwin/BulkDock/OUTPUTS/openbind_xx01zvns2b_c2_elabs_1LSYIIV.sdf']

>  <tags>  (112) 
syndirella_placed,openbind_xx01zvns2b_c2_elabs,openbind_xx01zvns2b_c2_elabs_scored_6.2plus,syndirella_product,openbind_xx01zvns2b_c2_elabs_scored,openbind_xx01zvns2b_c2_elabs_scored_top80percent,BulkDock Fragalysis export

>  <subsites>  (112) 
1 - Z4590/B/203/1

>  <smiles>  (112) 
COCCCN1Cc2ccc(NC(=O)c3ccc4[nH]c(=O)n(C(C)C)c4c3)cc2C1

>  <HIPPO Pose ID>  (112) 
103970

>  <energy_score>  (112) 
-44.314702

>  <inchikey>  (112) 
JGFVHJAPCUXNRZ-UHFFFAOYSA-N

>  <gnina_score_min>  (112) 
6.328

>  <gnina_score>  (112) 
6.184

>  <ref_mols>  (112) 
Z4245a

>  <HIPPO Compound ID>  (112) 
163933

>  <distance_score>  (112) 
0.733485

>  <rmsd(smina/fragmenstein)>  (112) 
0.827

>  <ref_pdb>  (112) 
Z4245a

>  <inspiration_score>  (112) 
None

$$$$
P103971
     RDKit          3D

 30 33  0  0  0  0  0  0  0  0999 V2000
   -3.4514    5.2164  -18.1566 C   0  0  0  0  0  0  0  0  0  0  0  0
   -4.6223    5.6596  -19.0294 C   0  0  0  0  0  0  0  0  0  0  0  0
   -4.9422    7.1443  -18.8438 C   0  0  0  0  0  0  0  0  0  0  0  0
   -5.8002    4.8269  -18.8883 N   0  0  0  0  0  0  0  0  0  0  0  0
   -6.4122    4.1552  -19.9776 C   0  0  0  0  0  0  0  0  0  0  0  0
   -5.9799    4.0202  -21.1132 O   0  0  0  0  0  0  0  0  0  0  0  0
   -7.6260    3.6406  -19.5041 N   0  0  0  0  0  0  0  0  0  0  0  0
   -7.7795    3.9979  -18.1758 C   0  0  0  0  0  0  0  0  0  0  0  0
   -8.8451    3.7364  -17.3483 C   0  0  0  0  0  0  0  0  0  0  0  0
   -8.7348    4.1755  -16.0304 C   0  0  0  0  0  0  0  0  0  0  0  0
   -7.5792    4.8662  -15.5988 C   0  0  0  0  0  0  0  0  0  0  0  0
   -7.4752    5.3572  -14.2013 C   0  0  0  0  0  0  0  0  0  0  0  0
   -7.1592    6.4658  -14.0171 O   0  0  0  0  0  0  0  0  0  0  0  0
   -7.8295    4.2368  -13.1981 N   0  0  0  0  0  0  0  0  0  0  0  0
   -7.9564    4.2708  -11.8141 C   0  0  0  0  0  0  0  0  0  0  0  0
   -7.6660    5.4320  -11.0785 C   0  0  0  0  0  0  0  0  0  0  0  0
   -7.8220    5.4588   -9.6903 C   0  0  0  0  0  0  0  0  0  0  0  0
   -8.2737    4.3118   -9.0713 C   0  0  0  0  0  0  0  0  0  0  0  0
   -8.5515    3.1517   -9.8004 C   0  0  0  0  0  0  0  0  0  0  0  0
   -8.3951    3.1118  -11.1698 C   0  0  0  0  0  0  0  0  0  0  0  0
   -9.0464    2.0931   -8.8681 C   0  0  0  0  0  0  0  0  0  0  0  0
   -9.4664    2.8858   -7.7078 N   0  0  0  0  0  0  0  0  0  0  0  0
   -9.6213    2.1334   -6.4713 C   0  0  0  0  0  0  0  0  0  0  0  0
  -10.1666    2.9560   -5.2966 C   0  0  0  0  0  0  0  0  0  0  0  0
  -10.9025    4.0187   -5.7122 F   0  0  0  0  0  0  0  0  0  0  0  0
   -9.1694    3.4647   -4.5314 F   0  0  0  0  0  0  0  0  0  0  0  0
  -10.9723    2.2151   -4.5125 F   0  0  0  0  0  0  0  0  0  0  0  0
   -8.5894    4.0612   -7.6337 C   0  0  0  0  0  0  0  0  0  0  0  0
   -6.5277    5.1617  -16.4782 C   0  0  0  0  0  0  0  0  0  0  0  0
   -6.6476    4.7090  -17.7713 C   0  0  0  0  0  0  0  0  0  0  0  0
  1  2  1  0
  2  3  1  0
  2  4  1  0
  4  5  1  0
  5  6  2  0
  5  7  1  0
  7  8  1  0
  8  9  2  0
  9 10  1  0
 10 11  2  0
 11 12  1  0
 12 13  2  0
 12 14  1  0
 14 15  1  0
 15 16  2  0
 16 17  1  0
 17 18  2  0
 18 19  1  0
 19 20  2  0
 19 21  1  0
 21 22  1  0
 22 23  1  0
 23 24  1  0
 24 25  1  0
 24 26  1  0
 24 27  1  0
 22 28  1  0
 11 29  1  0
 29 30  2  0
 30  4  1  0
 30  8  1  0
 20 15  1  0
 28 18  1  0
M  END
>  <name>  (113) 
P103971

>  <alias>  (113) 
None

>  <smina_score_min>  (113) 
-9.903

>  <exports>  (113) 
['/opt/xchem-fragalysis-2/maxwin/BulkDock/OUTPUTS/openbind_xx01zvns2b_c2_elabs_1LOUTNY.sdf', '/opt/xchem-fragalysis-2/maxwin/BulkDock/OUTPUTS/openbind_xx01zvns2b_c2_elabs_1LSYIIV.sdf']

>  <tags>  (113) 
syndirella_placed,openbind_xx01zvns2b_c2_elabs,openbind_xx01zvns2b_c2_elabs_scored_6.2plus,syndirella_product,openbind_xx01zvns2b_c2_elabs_scored,openbind_xx01zvns2b_c2_elabs_scored_top80percent,BulkDock Fragalysis export

>  <subsites>  (113) 
1 - Z4590/B/203/1

>  <smiles>  (113) 
CC(C)n1c(=O)[nH]c2ccc(C(=O)Nc3ccc4c(c3)CN(CC(F)(F)F)C4)cc21

>  <HIPPO Pose ID>  (113) 
103971

>  <energy_score>  (113) 
-42.404371

>  <inchikey>  (113) 
BCQWERFEUZTAGP-UHFFFAOYSA-N

>  <gnina_score_min>  (113) 
6.321

>  <gnina_score>  (113) 
6.296

>  <ref_mols>  (113) 
Z4245a

>  <HIPPO Compound ID>  (113) 
163934

>  <distance_score>  (113) 
0.671752

>  <rmsd(smina/fragmenstein)>  (113) 
0.313

>  <ref_pdb>  (113) 
Z4245a

>  <inspiration_score>  (113) 
None

$$$$
P103980
     RDKit          3D

 30 34  0  0  0  0  0  0  0  0999 V2000
  -10.7620    4.4251  -18.1372 C   0  0  0  0  0  0  0  0  0  0  0  0
   -9.9138    3.3252  -17.8050 O   0  0  0  0  0  0  0  0  0  0  0  0
   -8.7319    3.8146  -17.3607 C   0  0  0  0  0  0  0  0  0  0  0  0
   -8.5772    4.1800  -16.0298 C   0  0  0  0  0  0  0  0  0  0  0  0
   -7.3756    4.7833  -15.6153 C   0  0  0  0  0  0  0  0  0  0  0  0
   -7.2732    5.3591  -14.2642 C   0  0  0  0  0  0  0  0  0  0  0  0
   -6.7898    6.4204  -14.1810 O   0  0  0  0  0  0  0  0  0  0  0  0
   -7.9073    4.4565  -13.1767 N   0  0  0  0  0  0  0  0  0  0  0  0
   -7.9894    4.6246  -11.8024 C   0  0  0  0  0  0  0  0  0  0  0  0
   -7.6176    5.8774  -11.2894 C   0  0  0  0  0  0  0  0  0  0  0  0
   -7.5883    6.1076   -9.9322 C   0  0  0  0  0  0  0  0  0  0  0  0
   -7.9366    5.0617   -9.1120 C   0  0  0  0  0  0  0  0  0  0  0  0
   -8.3672    3.8214   -9.5891 C   0  0  0  0  0  0  0  0  0  0  0  0
   -8.4055    3.5854  -10.9559 C   0  0  0  0  0  0  0  0  0  0  0  0
   -8.7434    2.9446   -8.4223 C   0  0  0  0  0  0  0  0  0  0  0  0
   -8.2753    3.7430   -7.2559 N   0  0  0  0  0  0  0  0  0  0  0  0
   -8.8087    3.7063   -5.9818 C   0  0  0  0  0  0  0  0  0  0  0  0
  -10.0204    3.1004   -5.6971 C   0  0  0  0  0  0  0  0  0  0  0  0
  -10.6006    3.2833   -4.4516 C   0  0  0  0  0  0  0  0  0  0  0  0
   -9.9613    4.0252   -3.4514 C   0  0  0  0  0  0  0  0  0  0  0  0
   -8.7099    4.5579   -3.6797 C   0  0  0  0  0  0  0  0  0  0  0  0
   -8.1426    4.3895   -4.9345 C   0  0  0  0  0  0  0  0  0  0  0  0
   -7.8926    5.0969   -7.6389 C   0  0  0  0  0  0  0  0  0  0  0  0
   -6.3156    5.0210  -16.5058 C   0  0  0  0  0  0  0  0  0  0  0  0
   -6.5027    4.6150  -17.7999 C   0  0  0  0  0  0  0  0  0  0  0  0
   -5.6652    4.7246  -18.9016 N   0  0  0  0  0  0  0  0  0  0  0  0
   -6.3146    4.1584  -20.0132 C   0  0  0  0  0  0  0  0  0  0  0  0
   -5.8547    4.0584  -21.1385 O   0  0  0  0  0  0  0  0  0  0  0  0
   -7.5582    3.7029  -19.5634 N   0  0  0  0  0  0  0  0  0  0  0  0
   -7.6775    4.0065  -18.2152 C   0  0  0  0  0  0  0  0  0  0  0  0
  1  2  1  0
  2  3  1  0
  3  4  2  0
  4  5  1  0
  5  6  1  0
  6  7  2  0
  6  8  1  0
  8  9  1  0
  9 10  2  0
 10 11  1  0
 11 12  2  0
 12 13  1  0
 13 14  2  0
 13 15  1  0
 15 16  1  0
 16 17  1  0
 17 18  2  0
 18 19  1  0
 19 20  2  0
 20 21  1  0
 21 22  2  0
 16 23  1  0
  5 24  2  0
 24 25  1  0
 25 26  1  0
 26 27  1  0
 27 28  2  0
 27 29  1  0
 29 30  1  0
 30  3  1  0
 14  9  1  0
 22 17  1  0
 30 25  2  0
 23 12  1  0
M  END
>  <name>  (114) 
P103980

>  <alias>  (114) 
None

>  <smina_score_min>  (114) 
-8.961

>  <exports>  (114) 
['/opt/xchem-fragalysis-2/maxwin/BulkDock/OUTPUTS/openbind_xx01zvns2b_c2_elabs_1LOUTNY.sdf', '/opt/xchem-fragalysis-2/maxwin/BulkDock/OUTPUTS/openbind_xx01zvns2b_c2_elabs_1LSYIIV.sdf']

>  <tags>  (114) 
syndirella_placed,openbind_xx01zvns2b_c2_elabs,openbind_xx01zvns2b_c2_elabs_scored_6.2plus,syndirella_product,openbind_xx01zvns2b_c2_elabs_scored,openbind_xx01zvns2b_c2_elabs_scored_top80percent,BulkDock Fragalysis export

>  <subsites>  (114) 
1 - Z4590/B/203/1

>  <smiles>  (114) 
COc1cc(C(=O)Nc2ccc3c(c2)CN(c2ccccc2)C3)cc2[nH]c(=O)[nH]c12

>  <HIPPO Pose ID>  (114) 
103980

>  <energy_score>  (114) 
-6.938345

>  <inchikey>  (114) 
PCMJNYDVIFLDFI-UHFFFAOYSA-N

>  <gnina_score_min>  (114) 
6.223

>  <gnina_score>  (114) 
6.114

>  <ref_mols>  (114) 
Z4245a

>  <HIPPO Compound ID>  (114) 
163945

>  <distance_score>  (114) 
0.948504

>  <rmsd(smina/fragmenstein)>  (114) 
0.394

>  <ref_pdb>  (114) 
Z4245a

>  <inspiration_score>  (114) 
None

$$$$
P103999
     RDKit          3D

 30 34  0  0  0  0  0  0  0  0999 V2000
   -7.2071    6.3701  -14.0224 O   0  0  0  0  0  0  0  0  0  0  0  0
   -7.5800    5.2689  -14.1468 C   0  0  0  0  0  0  0  0  0  0  0  0
   -7.9999    4.2243  -13.0817 N   0  0  0  0  0  0  0  0  0  0  0  0
   -8.1337    4.3445  -11.6991 C   0  0  0  0  0  0  0  0  0  0  0  0
   -7.8085    5.5646  -11.0819 C   0  0  0  0  0  0  0  0  0  0  0  0
   -7.9084    5.7219   -9.7048 C   0  0  0  0  0  0  0  0  0  0  0  0
   -8.3191    4.6352   -8.9644 C   0  0  0  0  0  0  0  0  0  0  0  0
   -8.6512    3.4154   -9.5561 C   0  0  0  0  0  0  0  0  0  0  0  0
   -8.5714    3.2547  -10.9325 C   0  0  0  0  0  0  0  0  0  0  0  0
   -9.0895    2.4589   -8.4828 C   0  0  0  0  0  0  0  0  0  0  0  0
   -8.7077    3.1359   -7.2280 N   0  0  0  0  0  0  0  0  0  0  0  0
   -9.5225    2.8466   -6.0467 C   0  0  0  0  0  0  0  0  0  0  0  0
   -9.0582    3.5785   -4.7662 C   0  0  0  0  0  0  0  0  0  0  0  0
   -7.7296    3.4457   -4.5241 F   0  0  0  0  0  0  0  0  0  0  0  0
   -9.3006    4.9161   -4.8653 F   0  0  0  0  0  0  0  0  0  0  0  0
   -9.7216    3.1715   -3.6661 F   0  0  0  0  0  0  0  0  0  0  0  0
   -8.5111    4.5593   -7.4945 C   0  0  0  0  0  0  0  0  0  0  0  0
   -7.6666    4.7409  -15.5290 C   0  0  0  0  0  0  0  0  0  0  0  0
   -8.8393    4.1037  -15.9883 C   0  0  0  0  0  0  0  0  0  0  0  0
   -8.9643    3.7178  -17.3250 C   0  0  0  0  0  0  0  0  0  0  0  0
   -7.8931    3.9722  -18.1453 C   0  0  0  0  0  0  0  0  0  0  0  0
   -7.7349    3.6510  -19.4834 N   0  0  0  0  0  0  0  0  0  0  0  0
   -6.4780    4.1086  -19.9189 C   0  0  0  0  0  0  0  0  0  0  0  0
   -6.0134    3.9392  -21.0378 O   0  0  0  0  0  0  0  0  0  0  0  0
   -5.8733    4.7422  -18.7990 N   0  0  0  0  0  0  0  0  0  0  0  0
   -4.5764    5.3227  -18.7584 C   0  0  0  0  0  0  0  0  0  0  0  0
   -4.1169    6.2916  -19.8179 C   0  0  0  0  0  0  0  0  0  0  0  0
   -4.3705    6.7791  -18.4246 C   0  0  0  0  0  0  0  0  0  0  0  0
   -6.7401    4.6173  -17.7038 C   0  0  0  0  0  0  0  0  0  0  0  0
   -6.5978    5.0149  -16.3955 C   0  0  0  0  0  0  0  0  0  0  0  0
  1  2  2  0
  2  3  1  0
  3  4  1  0
  4  5  2  0
  5  6  1  0
  6  7  2  0
  7  8  1  0
  8  9  2  0
  8 10  1  0
 10 11  1  0
 11 12  1  0
 12 13  1  0
 13 14  1  0
 13 15  1  0
 13 16  1  0
 11 17  1  0
  2 18  1  0
 18 19  2  0
 19 20  1  0
 20 21  2  0
 21 22  1  0
 22 23  1  0
 23 24  2  0
 23 25  1  0
 25 26  1  0
 26 27  1  0
 27 28  1  0
 25 29  1  0
 29 30  2  0
  9  4  1  0
 30 18  1  0
 17  7  1  0
 29 21  1  0
 28 26  1  0
M  END
>  <name>  (115) 
P103999

>  <alias>  (115) 
None

>  <smina_score_min>  (115) 
-9.688

>  <exports>  (115) 
['/opt/xchem-fragalysis-2/maxwin/BulkDock/OUTPUTS/openbind_xx01zvns2b_c2_elabs_1LOUTNY.sdf', '/opt/xchem-fragalysis-2/maxwin/BulkDock/OUTPUTS/openbind_xx01zvns2b_c2_elabs_1LSYIIV.sdf']

>  <tags>  (115) 
syndirella_placed,openbind_xx01zvns2b_c2_elabs,openbind_xx01zvns2b_c2_elabs_scored_6.2plus,syndirella_product,openbind_xx01zvns2b_c2_elabs_scored,openbind_xx01zvns2b_c2_elabs_scored_top80percent,BulkDock Fragalysis export

>  <subsites>  (115) 
1 - Z4590/B/203/1

>  <smiles>  (115) 
O=C(Nc1ccc2c(c1)CN(CC(F)(F)F)C2)c1ccc2[nH]c(=O)n(C3CC3)c2c1

>  <HIPPO Pose ID>  (115) 
103999

>  <energy_score>  (115) 
-38.627682

>  <inchikey>  (115) 
GYVIHOVAOXGWFY-UHFFFAOYSA-N

>  <gnina_score_min>  (115) 
6.314

>  <gnina_score>  (115) 
6.2

>  <ref_mols>  (115) 
Z4245a

>  <HIPPO Compound ID>  (115) 
163967

>  <distance_score>  (115) 
0.629778

>  <rmsd(smina/fragmenstein)>  (115) 
0.539

>  <ref_pdb>  (115) 
Z4245a

>  <inspiration_score>  (115) 
None

$$$$
P104002
     RDKit          3D

 30 34  0  0  0  0  0  0  0  0999 V2000
   -9.4216    4.8716   -2.6172 C   0  0  0  0  0  0  0  0  0  0  0  0
   -8.9835    3.9227   -3.7403 C   0  0  0  0  0  0  0  0  0  0  0  0
   -7.5994    4.3340   -4.2148 C   0  0  0  0  0  0  0  0  0  0  0  0
  -10.0526    3.8830   -4.8471 C   0  0  0  0  0  0  0  0  0  0  0  0
   -9.8903    2.9375   -6.0621 C   0  0  0  0  0  0  0  0  0  0  0  0
   -8.8462    3.2247   -7.0423 N   0  0  0  0  0  0  0  0  0  0  0  0
   -8.6544    4.6339   -7.3857 C   0  0  0  0  0  0  0  0  0  0  0  0
   -8.3956    4.6701   -8.8492 C   0  0  0  0  0  0  0  0  0  0  0  0
   -8.0318    5.7622   -9.6101 C   0  0  0  0  0  0  0  0  0  0  0  0
   -7.8875    5.5840  -10.9820 C   0  0  0  0  0  0  0  0  0  0  0  0
   -8.1235    4.3353  -11.5802 C   0  0  0  0  0  0  0  0  0  0  0  0
   -7.9861    4.2102  -12.9654 N   0  0  0  0  0  0  0  0  0  0  0  0
   -7.5037    5.2354  -14.0275 C   0  0  0  0  0  0  0  0  0  0  0  0
   -7.0744    6.3162  -13.8980 O   0  0  0  0  0  0  0  0  0  0  0  0
   -7.6120    4.7228  -15.4194 C   0  0  0  0  0  0  0  0  0  0  0  0
   -8.7994    4.1094  -15.8742 C   0  0  0  0  0  0  0  0  0  0  0  0
   -8.9498    3.7460  -17.2169 C   0  0  0  0  0  0  0  0  0  0  0  0
   -7.8890    3.9960  -18.0523 C   0  0  0  0  0  0  0  0  0  0  0  0
   -7.7536    3.6888  -19.3974 N   0  0  0  0  0  0  0  0  0  0  0  0
   -6.4929    4.1280  -19.8431 C   0  0  0  0  0  0  0  0  0  0  0  0
   -6.0404    3.9578  -20.9673 O   0  0  0  0  0  0  0  0  0  0  0  0
   -5.8688    4.7479  -18.7245 N   0  0  0  0  0  0  0  0  0  0  0  0
   -4.5592    5.2995  -18.6917 C   0  0  0  0  0  0  0  0  0  0  0  0
   -4.0905    6.2706  -19.7452 C   0  0  0  0  0  0  0  0  0  0  0  0
   -4.3175    6.7469  -18.3434 C   0  0  0  0  0  0  0  0  0  0  0  0
   -6.7224    4.6206  -17.6180 C   0  0  0  0  0  0  0  0  0  0  0  0
   -6.5562    4.9976  -16.3039 C   0  0  0  0  0  0  0  0  0  0  0  0
   -8.4985    3.2355  -10.7896 C   0  0  0  0  0  0  0  0  0  0  0  0
   -8.6169    3.4188   -9.4137 C   0  0  0  0  0  0  0  0  0  0  0  0
   -9.0106    2.4619   -8.3211 C   0  0  0  0  0  0  0  0  0  0  0  0
  1  2  1  0
  2  3  1  0
  2  4  1  0
  4  5  1  0
  5  6  1  0
  6  7  1  0
  7  8  1  0
  8  9  2  0
  9 10  1  0
 10 11  2  0
 11 12  1  0
 12 13  1  0
 13 14  2  0
 13 15  1  0
 15 16  2  0
 16 17  1  0
 17 18  2  0
 18 19  1  0
 19 20  1  0
 20 21  2  0
 20 22  1  0
 22 23  1  0
 23 24  1  0
 24 25  1  0
 22 26  1  0
 26 27  2  0
 11 28  1  0
 28 29  2  0
 29 30  1  0
 30  6  1  0
 29  8  1  0
 27 15  1  0
 26 18  1  0
 25 23  1  0
M  END
>  <name>  (116) 
P104002

>  <alias>  (116) 
None

>  <smina_score_min>  (116) 
-9.043

>  <exports>  (116) 
['/opt/xchem-fragalysis-2/maxwin/BulkDock/OUTPUTS/openbind_xx01zvns2b_c2_elabs_1LOUTNY.sdf', '/opt/xchem-fragalysis-2/maxwin/BulkDock/OUTPUTS/openbind_xx01zvns2b_c2_elabs_1LSYIIV.sdf']

>  <tags>  (116) 
syndirella_placed,openbind_xx01zvns2b_c2_elabs,openbind_xx01zvns2b_c2_elabs_scored_6.2plus,syndirella_product,openbind_xx01zvns2b_c2_elabs_scored,openbind_xx01zvns2b_c2_elabs_scored_top80percent,BulkDock Fragalysis export

>  <subsites>  (116) 
1 - Z4590/B/203/1

>  <smiles>  (116) 
CC(C)CCN1Cc2ccc(NC(=O)c3ccc4[nH]c(=O)n(C5CC5)c4c3)cc2C1

>  <HIPPO Pose ID>  (116) 
104002

>  <energy_score>  (116) 
-57.135486

>  <inchikey>  (116) 
ZSNLMHDDIGBJLL-UHFFFAOYSA-N

>  <gnina_score_min>  (116) 
6.264

>  <gnina_score>  (116) 
6.252

>  <ref_mols>  (116) 
Z4245a

>  <HIPPO Compound ID>  (116) 
163971

>  <distance_score>  (116) 
0.588934

>  <rmsd(smina/fragmenstein)>  (116) 
0.381

>  <ref_pdb>  (116) 
Z4245a

>  <inspiration_score>  (116) 
None

$$$$
P104021
     RDKit          3D

 31 35  0  0  0  0  0  0  0  0999 V2000
   -9.8610    2.2887   -6.1872 C   0  0  0  0  0  0  0  0  0  0  0  0
   -9.1623    2.8123   -7.3311 N   0  0  0  0  0  0  0  0  0  0  0  0
   -9.1369    2.0913   -8.5929 C   0  0  0  0  0  0  0  0  0  0  0  0
   -8.6856    3.1401   -9.5534 C   0  0  0  0  0  0  0  0  0  0  0  0
   -8.5729    3.0890  -10.9344 C   0  0  0  0  0  0  0  0  0  0  0  0
   -8.1769    4.2489  -11.6152 C   0  0  0  0  0  0  0  0  0  0  0  0
   -8.1251    4.2234  -13.0095 N   0  0  0  0  0  0  0  0  0  0  0  0
   -7.5693    5.2626  -14.0147 C   0  0  0  0  0  0  0  0  0  0  0  0
   -7.1387    6.3342  -13.8359 O   0  0  0  0  0  0  0  0  0  0  0  0
   -7.6553    4.7759  -15.4214 C   0  0  0  0  0  0  0  0  0  0  0  0
   -8.8243    4.1427  -15.9013 C   0  0  0  0  0  0  0  0  0  0  0  0
   -8.9410    3.7636  -17.2419 C   0  0  0  0  0  0  0  0  0  0  0  0
   -7.8629    4.0171  -18.0516 C   0  0  0  0  0  0  0  0  0  0  0  0
   -7.6938    3.7087  -19.3933 N   0  0  0  0  0  0  0  0  0  0  0  0
   -6.4402    4.1813  -19.8133 C   0  0  0  0  0  0  0  0  0  0  0  0
   -5.9638    4.0539  -20.9322 O   0  0  0  0  0  0  0  0  0  0  0  0
   -5.8398    4.7777  -18.6833 N   0  0  0  0  0  0  0  0  0  0  0  0
   -4.5796    5.4656  -18.6880 C   0  0  0  0  0  0  0  0  0  0  0  0
   -4.7296    6.9579  -18.8823 C   0  0  0  0  0  0  0  0  0  0  0  0
   -4.5822    7.8454  -17.8070 C   0  0  0  0  0  0  0  0  0  0  0  0
   -4.7151    9.2224  -17.9993 C   0  0  0  0  0  0  0  0  0  0  0  0
   -4.9891    9.7283  -19.2683 C   0  0  0  0  0  0  0  0  0  0  0  0
   -5.1417    8.8566  -20.3442 C   0  0  0  0  0  0  0  0  0  0  0  0
   -5.0255    7.4788  -20.1508 C   0  0  0  0  0  0  0  0  0  0  0  0
   -6.7140    4.6606  -17.5950 C   0  0  0  0  0  0  0  0  0  0  0  0
   -6.5840    5.0557  -16.2822 C   0  0  0  0  0  0  0  0  0  0  0  0
   -7.8844    5.4271  -10.9025 C   0  0  0  0  0  0  0  0  0  0  0  0
   -8.0129    5.4752   -9.5107 C   0  0  0  0  0  0  0  0  0  0  0  0
   -8.4177    4.3226   -8.8685 C   0  0  0  0  0  0  0  0  0  0  0  0
   -8.7534    4.1248   -7.4523 C   0  0  0  0  0  0  0  0  0  0  0  0
   -8.7328    5.0028   -6.6086 O   0  0  0  0  0  0  0  0  0  0  0  0
  1  2  1  0
  2  3  1  0
  3  4  1  0
  4  5  2  0
  5  6  1  0
  6  7  1  0
  7  8  1  0
  8  9  2  0
  8 10  1  0
 10 11  2  0
 11 12  1  0
 12 13  2  0
 13 14  1  0
 14 15  1  0
 15 16  2  0
 15 17  1  0
 17 18  1  0
 18 19  1  0
 19 20  2  0
 20 21  1  0
 21 22  2  0
 22 23  1  0
 23 24  2  0
 17 25  1  0
 25 26  2  0
  6 27  2  0
 27 28  1  0
 28 29  2  0
 29 30  1  0
 30 31  2  0
 30  2  1  0
 29  4  1  0
 26 10  1  0
 25 13  1  0
 24 19  1  0
M  END
>  <name>  (117) 
P104021

>  <alias>  (117) 
None

>  <smina_score_min>  (117) 
-9.538

>  <exports>  (117) 
['/opt/xchem-fragalysis-2/maxwin/BulkDock/OUTPUTS/openbind_xx01zvns2b_c2_elabs_1LOUTNY.sdf', '/opt/xchem-fragalysis-2/maxwin/BulkDock/OUTPUTS/openbind_xx01zvns2b_c2_elabs_1LSYIIV.sdf']

>  <tags>  (117) 
syndirella_placed,openbind_xx01zvns2b_c2_elabs,openbind_xx01zvns2b_c2_elabs_scored_6.2plus,syndirella_product,openbind_xx01zvns2b_c2_elabs_scored,openbind_xx01zvns2b_c2_elabs_scored_top80percent,BulkDock Fragalysis export

>  <subsites>  (117) 
1 - Z4590/B/203/1

>  <smiles>  (117) 
CN1Cc2cc(NC(=O)c3ccc4[nH]c(=O)n(Cc5ccccc5)c4c3)ccc2C1=O

>  <HIPPO Pose ID>  (117) 
104021

>  <energy_score>  (117) 
-29.431102

>  <inchikey>  (117) 
UHSYYQYHYGTMRE-UHFFFAOYSA-N

>  <gnina_score_min>  (117) 
6.292

>  <gnina_score>  (117) 
6.255

>  <ref_mols>  (117) 
Z4245a

>  <HIPPO Compound ID>  (117) 
163998

>  <distance_score>  (117) 
0.478153

>  <rmsd(smina/fragmenstein)>  (117) 
0.301

>  <ref_pdb>  (117) 
Z4245a

>  <inspiration_score>  (117) 
None

$$$$
P104035
     RDKit          3D

 31 35  0  0  0  0  0  0  0  0999 V2000
   -7.3999    6.3682  -13.8475 O   0  0  0  0  0  0  0  0  0  0  0  0
   -7.7327    5.2569  -14.0034 C   0  0  0  0  0  0  0  0  0  0  0  0
   -8.1897    4.1866  -12.9700 N   0  0  0  0  0  0  0  0  0  0  0  0
   -8.2378    4.2356  -11.5638 C   0  0  0  0  0  0  0  0  0  0  0  0
   -8.7537    3.1184  -10.8853 C   0  0  0  0  0  0  0  0  0  0  0  0
   -8.8084    3.1581   -9.4972 C   0  0  0  0  0  0  0  0  0  0  0  0
   -8.3489    4.2446   -8.7563 C   0  0  0  0  0  0  0  0  0  0  0  0
   -7.8404    5.3511   -9.4040 C   0  0  0  0  0  0  0  0  0  0  0  0
   -7.7923    5.3396  -10.8043 C   0  0  0  0  0  0  0  0  0  0  0  0
   -7.2813    6.4307  -11.3867 F   0  0  0  0  0  0  0  0  0  0  0  0
   -8.5055    3.9785   -7.2982 C   0  0  0  0  0  0  0  0  0  0  0  0
   -9.1828    2.7126   -7.2795 N   0  0  0  0  0  0  0  0  0  0  0  0
   -9.3450    2.1776   -8.5409 C   0  0  0  0  0  0  0  0  0  0  0  0
   -9.8768    1.1224   -8.8077 O   0  0  0  0  0  0  0  0  0  0  0  0
   -7.7622    4.7568  -15.4117 C   0  0  0  0  0  0  0  0  0  0  0  0
   -8.8592    4.0185  -15.9028 C   0  0  0  0  0  0  0  0  0  0  0  0
   -8.9085    3.6011  -17.2366 C   0  0  0  0  0  0  0  0  0  0  0  0
   -7.8424    3.9312  -18.0336 C   0  0  0  0  0  0  0  0  0  0  0  0
   -7.6319    3.6148  -19.3668 N   0  0  0  0  0  0  0  0  0  0  0  0
   -6.4492    4.2338  -19.7981 C   0  0  0  0  0  0  0  0  0  0  0  0
   -5.9812    4.1636  -20.9262 O   0  0  0  0  0  0  0  0  0  0  0  0
   -5.9330    4.9393  -18.6820 N   0  0  0  0  0  0  0  0  0  0  0  0
   -5.1046    6.1050  -18.8352 C   0  0  0  0  0  0  0  0  0  0  0  0
   -3.7183    5.9864  -18.2671 C   0  0  0  0  0  0  0  0  0  0  0  0
   -2.7527    5.2189  -18.9297 C   0  0  0  0  0  0  0  0  0  0  0  0
   -1.4391    5.1906  -18.4660 C   0  0  0  0  0  0  0  0  0  0  0  0
   -1.0799    5.9118  -17.3287 C   0  0  0  0  0  0  0  0  0  0  0  0
   -2.0375    6.6553  -16.6451 C   0  0  0  0  0  0  0  0  0  0  0  0
   -3.3503    6.6970  -17.1146 C   0  0  0  0  0  0  0  0  0  0  0  0
   -6.7821    4.7115  -17.5841 C   0  0  0  0  0  0  0  0  0  0  0  0
   -6.7183    5.1399  -16.2744 C   0  0  0  0  0  0  0  0  0  0  0  0
  1  2  2  0
  2  3  1  0
  3  4  1  0
  4  5  2  0
  5  6  1  0
  6  7  2  0
  7  8  1  0
  8  9  2  0
  9 10  1  0
  7 11  1  0
 11 12  1  0
 12 13  1  0
 13 14  2  0
  2 15  1  0
 15 16  2  0
 16 17  1  0
 17 18  2  0
 18 19  1  0
 19 20  1  0
 20 21  2  0
 20 22  1  0
 22 23  1  0
 23 24  1  0
 24 25  2  0
 25 26  1  0
 26 27  2  0
 27 28  1  0
 28 29  2  0
 22 30  1  0
 30 31  2  0
  9  4  1  0
 31 15  1  0
 13  6  1  0
 30 18  1  0
 29 24  1  0
M  END
>  <name>  (118) 
P104035

>  <alias>  (118) 
None

>  <smina_score_min>  (118) 
-9.149

>  <exports>  (118) 
['/opt/xchem-fragalysis-2/maxwin/BulkDock/OUTPUTS/openbind_xx01zvns2b_c2_elabs_1LOUTNY.sdf', '/opt/xchem-fragalysis-2/maxwin/BulkDock/OUTPUTS/openbind_xx01zvns2b_c2_elabs_1LSYIIV.sdf']

>  <tags>  (118) 
syndirella_placed,openbind_xx01zvns2b_c2_elabs,openbind_xx01zvns2b_c2_elabs_scored_6.2plus,syndirella_product,openbind_xx01zvns2b_c2_elabs_scored,openbind_xx01zvns2b_c2_elabs_scored_top80percent,BulkDock Fragalysis export

>  <subsites>  (118) 
1 - Z4590/B/203/1

>  <smiles>  (118) 
O=C(Nc1cc2c(cc1F)CNC2=O)c1ccc2[nH]c(=O)n(Cc3ccccc3)c2c1

>  <HIPPO Pose ID>  (118) 
104035

>  <energy_score>  (118) 
-10.466081

>  <inchikey>  (118) 
NQPFZVVWNPPYII-UHFFFAOYSA-N

>  <gnina_score_min>  (118) 
6.443

>  <gnina_score>  (118) 
6.385

>  <ref_mols>  (118) 
Z4245a

>  <HIPPO Compound ID>  (118) 
164015

>  <distance_score>  (118) 
0.496267

>  <rmsd(smina/fragmenstein)>  (118) 
0.542

>  <ref_pdb>  (118) 
Z4245a

>  <inspiration_score>  (118) 
None

$$$$
P104047
     RDKit          3D

 31 34  0  0  0  0  0  0  0  0999 V2000
   -8.7603    4.3868   -1.0346 C   0  0  0  0  0  0  0  0  0  0  0  0
   -8.3374    5.1643   -2.2687 C   0  0  0  0  0  0  0  0  0  0  0  0
   -9.2811    4.9965   -3.3233 O   0  0  0  0  0  0  0  0  0  0  0  0
   -9.0431    3.8151   -4.1028 C   0  0  0  0  0  0  0  0  0  0  0  0
  -10.2131    3.6408   -5.0570 C   0  0  0  0  0  0  0  0  0  0  0  0
   -9.9888    2.6932   -6.2424 C   0  0  0  0  0  0  0  0  0  0  0  0
   -8.8852    3.0113   -7.1437 N   0  0  0  0  0  0  0  0  0  0  0  0
   -8.6433    4.4314   -7.4154 C   0  0  0  0  0  0  0  0  0  0  0  0
   -8.3882    4.5354   -8.8775 C   0  0  0  0  0  0  0  0  0  0  0  0
   -8.0458    5.6615   -9.5996 C   0  0  0  0  0  0  0  0  0  0  0  0
   -7.9083    5.5395  -10.9806 C   0  0  0  0  0  0  0  0  0  0  0  0
   -8.1231    4.3096  -11.6232 C   0  0  0  0  0  0  0  0  0  0  0  0
   -7.9858    4.2195  -13.0103 N   0  0  0  0  0  0  0  0  0  0  0  0
   -7.5622    5.2882  -14.0522 C   0  0  0  0  0  0  0  0  0  0  0  0
   -7.1887    6.3865  -13.9026 O   0  0  0  0  0  0  0  0  0  0  0  0
   -7.6288    4.7785  -15.4484 C   0  0  0  0  0  0  0  0  0  0  0  0
   -8.7733    4.0993  -15.9179 C   0  0  0  0  0  0  0  0  0  0  0  0
   -8.8679    3.7031  -17.2549 C   0  0  0  0  0  0  0  0  0  0  0  0
   -7.7954    3.9870  -18.0665 C   0  0  0  0  0  0  0  0  0  0  0  0
   -7.6226    3.6770  -19.4056 N   0  0  0  0  0  0  0  0  0  0  0  0
   -6.3961    4.2023  -19.8438 C   0  0  0  0  0  0  0  0  0  0  0  0
   -5.9529    4.1048  -20.9791 O   0  0  0  0  0  0  0  0  0  0  0  0
   -5.8000    4.8300  -18.7182 N   0  0  0  0  0  0  0  0  0  0  0  0
   -4.6481    5.7163  -18.7503 C   0  0  0  0  0  0  0  0  0  0  0  0
   -4.9788    7.0020  -19.5114 C   0  0  0  0  0  0  0  0  0  0  0  0
   -3.4005    5.0543  -19.3340 C   0  0  0  0  0  0  0  0  0  0  0  0
   -6.6718    4.6807  -17.6228 C   0  0  0  0  0  0  0  0  0  0  0  0
   -6.5674    5.0957  -16.3134 C   0  0  0  0  0  0  0  0  0  0  0  0
   -8.4736    3.1763  -10.8727 C   0  0  0  0  0  0  0  0  0  0  0  0
   -8.5943    3.3062   -9.4927 C   0  0  0  0  0  0  0  0  0  0  0  0
   -8.9683    2.2923   -8.4493 C   0  0  0  0  0  0  0  0  0  0  0  0
  1  2  1  0
  2  3  1  0
  3  4  1  0
  4  5  1  0
  5  6  1  0
  6  7  1  0
  7  8  1  0
  8  9  1  0
  9 10  2  0
 10 11  1  0
 11 12  2  0
 12 13  1  0
 13 14  1  0
 14 15  2  0
 14 16  1  0
 16 17  2  0
 17 18  1  0
 18 19  2  0
 19 20  1  0
 20 21  1  0
 21 22  2  0
 21 23  1  0
 23 24  1  0
 24 25  1  0
 24 26  1  0
 23 27  1  0
 27 28  2  0
 12 29  1  0
 29 30  2  0
 30 31  1  0
 31  7  1  0
 30  9  1  0
 28 16  1  0
 27 19  1  0
M  END
>  <name>  (119) 
P104047

>  <alias>  (119) 
None

>  <smina_score_min>  (119) 
-8.726

>  <exports>  (119) 
['/opt/xchem-fragalysis-2/maxwin/BulkDock/OUTPUTS/openbind_xx01zvns2b_c2_elabs_1LOUTNY.sdf', '/opt/xchem-fragalysis-2/maxwin/BulkDock/OUTPUTS/openbind_xx01zvns2b_c2_elabs_1LSYIIV.sdf']

>  <tags>  (119) 
syndirella_placed,openbind_xx01zvns2b_c2_elabs,openbind_xx01zvns2b_c2_elabs_scored_6.2plus,syndirella_product,openbind_xx01zvns2b_c2_elabs_scored,openbind_xx01zvns2b_c2_elabs_scored_top80percent,BulkDock Fragalysis export

>  <subsites>  (119) 
1 - Z4590/B/203/1

>  <smiles>  (119) 
CCOCCCN1Cc2ccc(NC(=O)c3ccc4[nH]c(=O)n(C(C)C)c4c3)cc2C1

>  <HIPPO Pose ID>  (119) 
104047

>  <energy_score>  (119) 
-142.045517

>  <inchikey>  (119) 
YDSCANWSCQKGLG-UHFFFAOYSA-N

>  <gnina_score_min>  (119) 
6.293

>  <gnina_score>  (119) 
6.187

>  <ref_mols>  (119) 
Z4245a

>  <HIPPO Compound ID>  (119) 
164038

>  <distance_score>  (119) 
0.562586

>  <rmsd(smina/fragmenstein)>  (119) 
0.533

>  <ref_pdb>  (119) 
Z4245a

>  <inspiration_score>  (119) 
None

$$$$
P104056
     RDKit          3D

 31 35  0  0  0  0  0  0  0  0999 V2000
  -10.6159    1.8644   -5.8352 C   0  0  0  0  0  0  0  0  0  0  0  0
   -9.3068    2.5837   -6.1008 C   0  0  0  0  0  0  0  0  0  0  0  0
   -9.3703    3.2839   -7.3675 N   0  0  0  0  0  0  0  0  0  0  0  0
   -8.3977    4.3756   -7.4761 C   0  0  0  0  0  0  0  0  0  0  0  0
   -8.2450    4.5475   -8.9492 C   0  0  0  0  0  0  0  0  0  0  0  0
   -7.7863    5.6372   -9.6570 C   0  0  0  0  0  0  0  0  0  0  0  0
   -7.7696    5.5487  -11.0488 C   0  0  0  0  0  0  0  0  0  0  0  0
   -8.1848    4.3780  -11.7075 C   0  0  0  0  0  0  0  0  0  0  0  0
   -8.1733    4.3139  -13.1001 N   0  0  0  0  0  0  0  0  0  0  0  0
   -7.6742    5.3375  -14.1503 C   0  0  0  0  0  0  0  0  0  0  0  0
   -7.2662    6.4248  -14.0145 O   0  0  0  0  0  0  0  0  0  0  0  0
   -7.7433    4.8040  -15.5392 C   0  0  0  0  0  0  0  0  0  0  0  0
   -8.8402    4.0373  -15.9890 C   0  0  0  0  0  0  0  0  0  0  0  0
   -8.9033    3.5817  -17.3095 C   0  0  0  0  0  0  0  0  0  0  0  0
   -7.8523    3.9039  -18.1292 C   0  0  0  0  0  0  0  0  0  0  0  0
   -7.6474    3.5590  -19.4559 N   0  0  0  0  0  0  0  0  0  0  0  0
   -6.4792    4.1902  -19.9138 C   0  0  0  0  0  0  0  0  0  0  0  0
   -6.0251    4.1089  -21.0467 O   0  0  0  0  0  0  0  0  0  0  0  0
   -5.9677    4.9282  -18.8202 N   0  0  0  0  0  0  0  0  0  0  0  0
   -5.1597    6.1039  -18.9899 C   0  0  0  0  0  0  0  0  0  0  0  0
   -3.6851    5.8560  -18.8641 C   0  0  0  0  0  0  0  0  0  0  0  0
   -3.0329    5.9939  -17.6307 C   0  0  0  0  0  0  0  0  0  0  0  0
   -1.6528    5.8212  -17.5406 C   0  0  0  0  0  0  0  0  0  0  0  0
   -0.9182    5.5048  -18.6797 C   0  0  0  0  0  0  0  0  0  0  0  0
   -1.5623    5.3528  -19.9061 C   0  0  0  0  0  0  0  0  0  0  0  0
   -2.9401    5.5142  -19.9984 C   0  0  0  0  0  0  0  0  0  0  0  0
   -6.7992    4.7094  -17.7132 C   0  0  0  0  0  0  0  0  0  0  0  0
   -6.7170    5.1729  -16.4213 C   0  0  0  0  0  0  0  0  0  0  0  0
   -8.6296    3.2721  -10.9733 C   0  0  0  0  0  0  0  0  0  0  0  0
   -8.6714    3.3834   -9.5933 C   0  0  0  0  0  0  0  0  0  0  0  0
   -9.1584    2.4155   -8.5553 C   0  0  0  0  0  0  0  0  0  0  0  0
  1  2  1  0
  2  3  1  0
  3  4  1  0
  4  5  1  0
  5  6  2  0
  6  7  1  0
  7  8  2  0
  8  9  1  0
  9 10  1  0
 10 11  2  0
 10 12  1  0
 12 13  2  0
 13 14  1  0
 14 15  2  0
 15 16  1  0
 16 17  1  0
 17 18  2  0
 17 19  1  0
 19 20  1  0
 20 21  1  0
 21 22  2  0
 22 23  1  0
 23 24  2  0
 24 25  1  0
 25 26  2  0
 19 27  1  0
 27 28  2  0
  8 29  1  0
 29 30  2  0
 30 31  1  0
 31  3  1  0
 30  5  1  0
 28 12  1  0
 27 15  1  0
 26 21  1  0
M  END
>  <name>  (120) 
P104056

>  <alias>  (120) 
None

>  <smina_score_min>  (120) 
-9.606

>  <exports>  (120) 
['/opt/xchem-fragalysis-2/maxwin/BulkDock/OUTPUTS/openbind_xx01zvns2b_c2_elabs_1LOUTNY.sdf', '/opt/xchem-fragalysis-2/maxwin/BulkDock/OUTPUTS/openbind_xx01zvns2b_c2_elabs_1LSYIIV.sdf']

>  <tags>  (120) 
syndirella_placed,openbind_xx01zvns2b_c2_elabs,openbind_xx01zvns2b_c2_elabs_scored_6.2plus,syndirella_product,openbind_xx01zvns2b_c2_elabs_scored,openbind_xx01zvns2b_c2_elabs_scored_top80percent,BulkDock Fragalysis export

>  <subsites>  (120) 
1 - Z4590/B/203/1

>  <smiles>  (120) 
CCN1Cc2ccc(NC(=O)c3ccc4[nH]c(=O)n(Cc5ccccc5)c4c3)cc2C1

>  <HIPPO Pose ID>  (120) 
104056

>  <energy_score>  (120) 
-33.67779

>  <inchikey>  (120) 
PPBSKDWSTYXKRZ-UHFFFAOYSA-N

>  <gnina_score_min>  (120) 
6.283

>  <gnina_score>  (120) 
6.274

>  <ref_mols>  (120) 
Z4245a

>  <HIPPO Compound ID>  (120) 
164052

>  <distance_score>  (120) 
0.659034

>  <rmsd(smina/fragmenstein)>  (120) 
0.628

>  <ref_pdb>  (120) 
Z4245a

>  <inspiration_score>  (120) 
None

$$$$
P104058
     RDKit          3D

 31 35  0  0  0  0  0  0  0  0999 V2000
   -9.4816    5.8624   -1.2284 C   0  0  0  0  0  0  0  0  0  0  0  0
   -8.7251    5.2221   -2.3747 C   0  0  0  0  0  0  0  0  0  0  0  0
   -9.6623    4.5621   -3.2195 O   0  0  0  0  0  0  0  0  0  0  0  0
   -9.0260    3.9529   -4.3464 C   0  0  0  0  0  0  0  0  0  0  0  0
  -10.0579    3.1466   -5.1268 C   0  0  0  0  0  0  0  0  0  0  0  0
   -9.4721    2.3313   -6.2845 C   0  0  0  0  0  0  0  0  0  0  0  0
   -9.4448    3.0768   -7.5270 N   0  0  0  0  0  0  0  0  0  0  0  0
   -8.5337    4.2247   -7.5668 C   0  0  0  0  0  0  0  0  0  0  0  0
   -8.2808    4.4134   -9.0234 C   0  0  0  0  0  0  0  0  0  0  0  0
   -7.8045    5.5219   -9.6901 C   0  0  0  0  0  0  0  0  0  0  0  0
   -7.7117    5.4521  -11.0793 C   0  0  0  0  0  0  0  0  0  0  0  0
   -8.0903    4.2885  -11.7707 C   0  0  0  0  0  0  0  0  0  0  0  0
   -8.0423    4.2419  -13.1591 N   0  0  0  0  0  0  0  0  0  0  0  0
   -7.5518    5.2920  -14.1832 C   0  0  0  0  0  0  0  0  0  0  0  0
   -7.1834    6.3892  -14.0252 O   0  0  0  0  0  0  0  0  0  0  0  0
   -7.6419    4.7845  -15.5743 C   0  0  0  0  0  0  0  0  0  0  0  0
   -8.8181    4.1473  -16.0332 C   0  0  0  0  0  0  0  0  0  0  0  0
   -8.9413    3.7459  -17.3637 C   0  0  0  0  0  0  0  0  0  0  0  0
   -7.8663    3.9909  -18.1807 C   0  0  0  0  0  0  0  0  0  0  0  0
   -7.7050    3.6561  -19.5147 N   0  0  0  0  0  0  0  0  0  0  0  0
   -6.4495    4.1136  -19.9526 C   0  0  0  0  0  0  0  0  0  0  0  0
   -5.9858    3.9402  -21.0711 O   0  0  0  0  0  0  0  0  0  0  0  0
   -5.8443    4.7534  -18.8367 N   0  0  0  0  0  0  0  0  0  0  0  0
   -4.5475    5.3343  -18.8002 C   0  0  0  0  0  0  0  0  0  0  0  0
   -4.0875    6.2952  -19.8667 C   0  0  0  0  0  0  0  0  0  0  0  0
   -4.3412    6.7930  -18.4771 C   0  0  0  0  0  0  0  0  0  0  0  0
   -6.7130    4.6399  -17.7420 C   0  0  0  0  0  0  0  0  0  0  0  0
   -6.5708    5.0498  -16.4374 C   0  0  0  0  0  0  0  0  0  0  0  0
   -8.5486    3.1647  -11.0769 C   0  0  0  0  0  0  0  0  0  0  0  0
   -8.6402    3.2473   -9.7013 C   0  0  0  0  0  0  0  0  0  0  0  0
   -9.1252    2.2412   -8.7049 C   0  0  0  0  0  0  0  0  0  0  0  0
  1  2  1  0
  2  3  1  0
  3  4  1  0
  4  5  1  0
  5  6  1  0
  6  7  1  0
  7  8  1  0
  8  9  1  0
  9 10  2  0
 10 11  1  0
 11 12  2  0
 12 13  1  0
 13 14  1  0
 14 15  2  0
 14 16  1  0
 16 17  2  0
 17 18  1  0
 18 19  2  0
 19 20  1  0
 20 21  1  0
 21 22  2  0
 21 23  1  0
 23 24  1  0
 24 25  1  0
 25 26  1  0
 23 27  1  0
 27 28  2  0
 12 29  1  0
 29 30  2  0
 30 31  1  0
 31  7  1  0
 30  9  1  0
 28 16  1  0
 27 19  1  0
 26 24  1  0
M  END
>  <name>  (121) 
P104058

>  <alias>  (121) 
None

>  <smina_score_min>  (121) 
-8.775

>  <exports>  (121) 
['/opt/xchem-fragalysis-2/maxwin/BulkDock/OUTPUTS/openbind_xx01zvns2b_c2_elabs_1LOUTNY.sdf', '/opt/xchem-fragalysis-2/maxwin/BulkDock/OUTPUTS/openbind_xx01zvns2b_c2_elabs_1LSYIIV.sdf']

>  <tags>  (121) 
syndirella_placed,openbind_xx01zvns2b_c2_elabs,openbind_xx01zvns2b_c2_elabs_scored_6.2plus,syndirella_product,openbind_xx01zvns2b_c2_elabs_scored,openbind_xx01zvns2b_c2_elabs_scored_top80percent,BulkDock Fragalysis export

>  <subsites>  (121) 
1 - Z4590/B/203/1

>  <smiles>  (121) 
CCOCCCN1Cc2ccc(NC(=O)c3ccc4[nH]c(=O)n(C5CC5)c4c3)cc2C1

>  <HIPPO Pose ID>  (121) 
104058

>  <energy_score>  (121) 
-44.995721

>  <inchikey>  (121) 
YUHSIZCZXIQUDL-UHFFFAOYSA-N

>  <gnina_score_min>  (121) 
6.225

>  <gnina_score>  (121) 
6.185

>  <ref_mols>  (121) 
Z4245a

>  <HIPPO Compound ID>  (121) 
164054

>  <distance_score>  (121) 
0.631763

>  <rmsd(smina/fragmenstein)>  (121) 
0.484

>  <ref_pdb>  (121) 
Z4245a

>  <inspiration_score>  (121) 
None

$$$$
P104063
     RDKit          3D

 31 36  0  0  0  0  0  0  0  0999 V2000
   -6.9632    6.2743  -14.1517 O   0  0  0  0  0  0  0  0  0  0  0  0
   -7.4467    5.2076  -14.1846 C   0  0  0  0  0  0  0  0  0  0  0  0
   -7.9696    4.3022  -13.0331 N   0  0  0  0  0  0  0  0  0  0  0  0
   -8.0876    4.5537  -11.6649 C   0  0  0  0  0  0  0  0  0  0  0  0
   -7.7886    5.8694  -11.2705 C   0  0  0  0  0  0  0  0  0  0  0  0
   -7.8860    6.2662   -9.9597 C   0  0  0  0  0  0  0  0  0  0  0  0
   -8.2866    5.3208   -9.0494 C   0  0  0  0  0  0  0  0  0  0  0  0
   -8.5750    3.9933   -9.3743 C   0  0  0  0  0  0  0  0  0  0  0  0
   -8.4834    3.5904  -10.7103 C   0  0  0  0  0  0  0  0  0  0  0  0
   -8.9581    3.2687   -8.0907 C   0  0  0  0  0  0  0  0  0  0  0  0
   -9.1893    4.4046   -7.1283 N   0  0  0  0  0  0  0  0  0  0  0  0
   -8.9868    4.4276   -5.7460 C   0  0  0  0  0  0  0  0  0  0  0  0
   -9.6117    5.4578   -5.0148 C   0  0  0  0  0  0  0  0  0  0  0  0
   -9.2052    5.8186   -3.7286 C   0  0  0  0  0  0  0  0  0  0  0  0
   -8.1384    5.1590   -3.1493 C   0  0  0  0  0  0  0  0  0  0  0  0
   -7.5267    4.1245   -3.8482 C   0  0  0  0  0  0  0  0  0  0  0  0
   -7.9891    3.7143   -5.1054 C   0  0  0  0  0  0  0  0  0  0  0  0
   -8.4766    5.5959   -7.6170 C   0  0  0  0  0  0  0  0  0  0  0  0
   -7.5857    4.6330  -15.5377 C   0  0  0  0  0  0  0  0  0  0  0  0
   -8.7865    4.0352  -15.9696 C   0  0  0  0  0  0  0  0  0  0  0  0
   -8.9535    3.6746  -17.3112 C   0  0  0  0  0  0  0  0  0  0  0  0
   -7.9005    3.9201  -18.1604 C   0  0  0  0  0  0  0  0  0  0  0  0
   -7.7792    3.6185  -19.5071 N   0  0  0  0  0  0  0  0  0  0  0  0
   -6.5244    4.0606  -19.9659 C   0  0  0  0  0  0  0  0  0  0  0  0
   -6.0833    3.8947  -21.0947 O   0  0  0  0  0  0  0  0  0  0  0  0
   -5.8859    4.6725  -18.8559 N   0  0  0  0  0  0  0  0  0  0  0  0
   -4.5881    5.2526  -18.8412 C   0  0  0  0  0  0  0  0  0  0  0  0
   -4.1532    6.2301  -19.9034 C   0  0  0  0  0  0  0  0  0  0  0  0
   -4.3764    6.7069  -18.5013 C   0  0  0  0  0  0  0  0  0  0  0  0
   -6.7250    4.5354  -17.7429 C   0  0  0  0  0  0  0  0  0  0  0  0
   -6.5373    4.8989  -16.4348 C   0  0  0  0  0  0  0  0  0  0  0  0
  1  2  2  0
  2  3  1  0
  3  4  1  0
  4  5  2  0
  5  6  1  0
  6  7  2  0
  7  8  1  0
  8  9  2  0
  8 10  1  0
 10 11  1  0
 11 12  1  0
 12 13  2  0
 13 14  1  0
 14 15  2  0
 15 16  1  0
 16 17  2  0
 11 18  1  0
  2 19  1  0
 19 20  2  0
 20 21  1  0
 21 22  2  0
 22 23  1  0
 23 24  1  0
 24 25  2  0
 24 26  1  0
 26 27  1  0
 27 28  1  0
 28 29  1  0
 26 30  1  0
 30 31  2  0
  9  4  1  0
 17 12  1  0
 31 19  1  0
 18  7  1  0
 30 22  1  0
 29 27  1  0
M  END
>  <name>  (122) 
P104063

>  <alias>  (122) 
None

>  <smina_score_min>  (122) 
-9.968

>  <exports>  (122) 
['/opt/xchem-fragalysis-2/maxwin/BulkDock/OUTPUTS/openbind_xx01zvns2b_c2_elabs_1LOUTNY.sdf', '/opt/xchem-fragalysis-2/maxwin/BulkDock/OUTPUTS/openbind_xx01zvns2b_c2_elabs_1LSYIIV.sdf']

>  <tags>  (122) 
syndirella_placed,openbind_xx01zvns2b_c2_elabs,openbind_xx01zvns2b_c2_elabs_scored_6.2plus,syndirella_product,openbind_xx01zvns2b_c2_elabs_scored,openbind_xx01zvns2b_c2_elabs_scored_top80percent,BulkDock Fragalysis export

>  <subsites>  (122) 
1 - Z4590/B/203/1

>  <smiles>  (122) 
O=C(Nc1ccc2c(c1)CN(c1ccccc1)C2)c1ccc2[nH]c(=O)n(C3CC3)c2c1

>  <HIPPO Pose ID>  (122) 
104063

>  <energy_score>  (122) 
-10.407474

>  <inchikey>  (122) 
JYODWKRJAUEJPH-UHFFFAOYSA-N

>  <gnina_score_min>  (122) 
6.229

>  <gnina_score>  (122) 
6.165

>  <ref_mols>  (122) 
Z4245a

>  <HIPPO Compound ID>  (122) 
164061

>  <distance_score>  (122) 
0.992875

>  <rmsd(smina/fragmenstein)>  (122) 
0.803

>  <ref_pdb>  (122) 
Z4245a

>  <inspiration_score>  (122) 
None

$$$$
P104073
     RDKit          3D

 31 35  0  0  0  0  0  0  0  0999 V2000
   -5.0344    6.9553  -19.6431 C   0  0  0  0  0  0  0  0  0  0  0  0
   -4.6897    5.6812  -18.8684 C   0  0  0  0  0  0  0  0  0  0  0  0
   -3.4316    5.0305  -19.4419 C   0  0  0  0  0  0  0  0  0  0  0  0
   -5.8312    4.7808  -18.8288 N   0  0  0  0  0  0  0  0  0  0  0  0
   -6.4271    4.1471  -19.9486 C   0  0  0  0  0  0  0  0  0  0  0  0
   -5.9843    4.0450  -21.0834 O   0  0  0  0  0  0  0  0  0  0  0  0
   -7.6554    3.6263  -19.5086 N   0  0  0  0  0  0  0  0  0  0  0  0
   -7.8336    3.9511  -18.1748 C   0  0  0  0  0  0  0  0  0  0  0  0
   -8.9102    3.6821  -17.3623 C   0  0  0  0  0  0  0  0  0  0  0  0
   -8.8150    4.0842  -16.0268 C   0  0  0  0  0  0  0  0  0  0  0  0
   -7.6628    4.7494  -15.5621 C   0  0  0  0  0  0  0  0  0  0  0  0
   -7.5263    5.2261  -14.1611 C   0  0  0  0  0  0  0  0  0  0  0  0
   -6.9734    6.2467  -14.0135 O   0  0  0  0  0  0  0  0  0  0  0  0
   -8.0655    4.2137  -13.1150 N   0  0  0  0  0  0  0  0  0  0  0  0
   -8.1179    4.2908  -11.7248 C   0  0  0  0  0  0  0  0  0  0  0  0
   -7.5116    5.4008  -11.0964 C   0  0  0  0  0  0  0  0  0  0  0  0
   -7.4125    5.4845   -9.7146 C   0  0  0  0  0  0  0  0  0  0  0  0
   -7.9644    4.4520   -8.9974 C   0  0  0  0  0  0  0  0  0  0  0  0
   -8.6251    3.3897   -9.5827 C   0  0  0  0  0  0  0  0  0  0  0  0
   -8.6979    3.2657  -10.9613 C   0  0  0  0  0  0  0  0  0  0  0  0
   -9.1612    2.5775   -8.4823 C   0  0  0  0  0  0  0  0  0  0  0  0
   -9.8065    1.5621   -8.6442 O   0  0  0  0  0  0  0  0  0  0  0  0
   -8.8061    3.2194   -7.3216 N   0  0  0  0  0  0  0  0  0  0  0  0
   -9.0672    2.7382   -5.9885 C   0  0  0  0  0  0  0  0  0  0  0  0
   -9.8558    3.7631   -5.2146 C   0  0  0  0  0  0  0  0  0  0  0  0
   -9.1873    4.9701   -4.5859 C   0  0  0  0  0  0  0  0  0  0  0  0
   -9.7139    3.8764   -3.7156 C   0  0  0  0  0  0  0  0  0  0  0  0
   -7.9648    4.2615   -7.5646 C   0  0  0  0  0  0  0  0  0  0  0  0
   -7.2731    4.9313   -6.8181 O   0  0  0  0  0  0  0  0  0  0  0  0
   -6.5992    5.0531  -16.4321 C   0  0  0  0  0  0  0  0  0  0  0  0
   -6.7071    4.6402  -17.7374 C   0  0  0  0  0  0  0  0  0  0  0  0
  1  2  1  0
  2  3  1  0
  2  4  1  0
  4  5  1  0
  5  6  2  0
  5  7  1  0
  7  8  1  0
  8  9  2  0
  9 10  1  0
 10 11  2  0
 11 12  1  0
 12 13  2  0
 12 14  1  0
 14 15  1  0
 15 16  2  0
 16 17  1  0
 17 18  2  0
 18 19  1  0
 19 20  2  0
 19 21  1  0
 21 22  2  0
 21 23  1  0
 23 24  1  0
 24 25  1  0
 25 26  1  0
 26 27  1  0
 23 28  1  0
 28 29  2  0
 11 30  1  0
 30 31  2  0
 31  4  1  0
 31  8  1  0
 20 15  1  0
 27 25  1  0
 28 18  1  0
M  END
>  <name>  (123) 
P104073

>  <alias>  (123) 
None

>  <smina_score_min>  (123) 
-9.374

>  <exports>  (123) 
['/opt/xchem-fragalysis-2/maxwin/BulkDock/OUTPUTS/openbind_xx01zvns2b_c2_elabs_1LOUTNY.sdf', '/opt/xchem-fragalysis-2/maxwin/BulkDock/OUTPUTS/openbind_xx01zvns2b_c2_elabs_1LSYIIV.sdf']

>  <tags>  (123) 
syndirella_placed,openbind_xx01zvns2b_c2_elabs,openbind_xx01zvns2b_c2_elabs_scored_6.2plus,syndirella_product,openbind_xx01zvns2b_c2_elabs_scored,openbind_xx01zvns2b_c2_elabs_scored_top80percent,BulkDock Fragalysis export

>  <subsites>  (123) 
1 - Z4590/B/203/1

>  <smiles>  (123) 
CC(C)n1c(=O)[nH]c2ccc(C(=O)Nc3ccc4c(c3)C(=O)N(CC3CC3)C4=O)cc21

>  <HIPPO Pose ID>  (123) 
104073

>  <energy_score>  (123) 
-34.97406

>  <inchikey>  (123) 
PRPKOZQLZIDMKU-UHFFFAOYSA-N

>  <gnina_score_min>  (123) 
6.234

>  <gnina_score>  (123) 
6.206

>  <ref_mols>  (123) 
Z4245a

>  <HIPPO Compound ID>  (123) 
164073

>  <distance_score>  (123) 
0.664936

>  <rmsd(smina/fragmenstein)>  (123) 
0.478

>  <ref_pdb>  (123) 
Z4245a

>  <inspiration_score>  (123) 
None

$$$$
P104077
     RDKit          3D

 31 34  0  0  0  0  0  0  0  0999 V2000
   -7.3611    6.4434  -13.8791 O   0  0  0  0  0  0  0  0  0  0  0  0
   -7.6247    5.3169  -14.0461 C   0  0  0  0  0  0  0  0  0  0  0  0
   -7.9453    4.1985  -13.0232 N   0  0  0  0  0  0  0  0  0  0  0  0
   -8.0958    4.2542  -11.6366 C   0  0  0  0  0  0  0  0  0  0  0  0
   -7.8958    5.4568  -10.9411 C   0  0  0  0  0  0  0  0  0  0  0  0
   -8.0458    5.5156   -9.5539 C   0  0  0  0  0  0  0  0  0  0  0  0
   -8.3798    4.3547   -8.8817 C   0  0  0  0  0  0  0  0  0  0  0  0
   -8.5662    3.1566   -9.5579 C   0  0  0  0  0  0  0  0  0  0  0  0
   -8.4385    3.0893  -10.9386 C   0  0  0  0  0  0  0  0  0  0  0  0
   -8.9136    2.0793   -8.5790 C   0  0  0  0  0  0  0  0  0  0  0  0
   -8.8875    2.7249   -7.2351 N   0  0  0  0  0  0  0  0  0  0  0  0
  -10.0953    2.4034   -6.4661 C   0  0  0  0  0  0  0  0  0  0  0  0
  -10.2609    3.0569   -5.0942 C   0  0  0  0  0  0  0  0  0  0  0  0
  -10.4107    4.4065   -5.2147 F   0  0  0  0  0  0  0  0  0  0  0  0
  -11.4210    2.6175   -4.5381 F   0  0  0  0  0  0  0  0  0  0  0  0
   -8.6444    4.1654   -7.4277 C   0  0  0  0  0  0  0  0  0  0  0  0
   -7.6593    4.8163  -15.4457 C   0  0  0  0  0  0  0  0  0  0  0  0
   -8.7792    4.1023  -15.9274 C   0  0  0  0  0  0  0  0  0  0  0  0
   -8.8472    3.6958  -17.2628 C   0  0  0  0  0  0  0  0  0  0  0  0
   -7.7754    4.0111  -18.0615 C   0  0  0  0  0  0  0  0  0  0  0  0
   -7.5704    3.7002  -19.3982 N   0  0  0  0  0  0  0  0  0  0  0  0
   -6.3525    4.2607  -19.8145 C   0  0  0  0  0  0  0  0  0  0  0  0
   -5.8602    4.1704  -20.9288 O   0  0  0  0  0  0  0  0  0  0  0  0
   -5.8177    4.9313  -18.6921 N   0  0  0  0  0  0  0  0  0  0  0  0
   -4.6502    5.7843  -18.7178 C   0  0  0  0  0  0  0  0  0  0  0  0
   -3.3672    5.1860  -18.1617 C   0  0  0  0  0  0  0  0  0  0  0  0
   -2.9563    4.1047  -18.8505 F   0  0  0  0  0  0  0  0  0  0  0  0
   -3.4967    4.8354  -16.8620 F   0  0  0  0  0  0  0  0  0  0  0  0
   -2.3718    6.1059  -18.2196 F   0  0  0  0  0  0  0  0  0  0  0  0
   -6.6809    4.7440  -17.6035 C   0  0  0  0  0  0  0  0  0  0  0  0
   -6.5971    5.1641  -16.2956 C   0  0  0  0  0  0  0  0  0  0  0  0
  1  2  2  0
  2  3  1  0
  3  4  1  0
  4  5  2  0
  5  6  1  0
  6  7  2  0
  7  8  1  0
  8  9  2  0
  8 10  1  0
 10 11  1  0
 11 12  1  0
 12 13  1  0
 13 14  1  0
 13 15  1  0
 11 16  1  0
  2 17  1  0
 17 18  2  0
 18 19  1  0
 19 20  2  0
 20 21  1  0
 21 22  1  0
 22 23  2  0
 22 24  1  0
 24 25  1  0
 25 26  1  0
 26 27  1  0
 26 28  1  0
 26 29  1  0
 24 30  1  0
 30 31  2  0
  9  4  1  0
 31 17  1  0
 16  7  1  0
 30 20  1  0
M  END
>  <name>  (124) 
P104077

>  <alias>  (124) 
None

>  <smina_score_min>  (124) 
-9.389

>  <exports>  (124) 
['/opt/xchem-fragalysis-2/maxwin/BulkDock/OUTPUTS/openbind_xx01zvns2b_c2_elabs_1LOUTNY.sdf', '/opt/xchem-fragalysis-2/maxwin/BulkDock/OUTPUTS/openbind_xx01zvns2b_c2_elabs_1LSYIIV.sdf']

>  <tags>  (124) 
syndirella_placed,openbind_xx01zvns2b_c2_elabs,openbind_xx01zvns2b_c2_elabs_scored_6.2plus,syndirella_product,openbind_xx01zvns2b_c2_elabs_scored,openbind_xx01zvns2b_c2_elabs_scored_top80percent,BulkDock Fragalysis export

>  <subsites>  (124) 
1 - Z4590/B/203/1

>  <smiles>  (124) 
O=C(Nc1ccc2c(c1)CN(CC(F)F)C2)c1ccc2[nH]c(=O)n(CC(F)(F)F)c2c1

>  <HIPPO Pose ID>  (124) 
104077

>  <energy_score>  (124) 
-38.131449

>  <inchikey>  (124) 
SEEYVUSOTZASAD-UHFFFAOYSA-N

>  <gnina_score_min>  (124) 
6.248

>  <gnina_score>  (124) 
6.286

>  <ref_mols>  (124) 
Z4245a

>  <HIPPO Compound ID>  (124) 
164078

>  <distance_score>  (124) 
0.536991

>  <rmsd(smina/fragmenstein)>  (124) 
0.438

>  <ref_pdb>  (124) 
Z4245a

>  <inspiration_score>  (124) 
None

$$$$
P104082
     RDKit          3D

 31 35  0  0  0  0  0  0  0  0999 V2000
  -10.3703    4.1057   -3.1585 O   0  0  0  0  0  0  0  0  0  0  0  0
  -10.0972    3.5261   -4.1994 C   0  0  0  0  0  0  0  0  0  0  0  0
   -8.8168    3.7236   -4.9176 C   0  0  0  0  0  0  0  0  0  0  0  0
   -8.8745    2.7269   -6.0715 C   0  0  2  0  0  0  0  0  0  0  0  0
   -8.7556    3.3365   -7.3766 N   0  0  0  0  0  0  0  0  0  0  0  0
   -9.0374    2.5805   -8.6052 C   0  0  0  0  0  0  0  0  0  0  0  0
   -8.4660    3.4786   -9.6541 C   0  0  0  0  0  0  0  0  0  0  0  0
   -8.4873    3.3975  -11.0337 C   0  0  0  0  0  0  0  0  0  0  0  0
   -7.8396    4.4145  -11.7517 C   0  0  0  0  0  0  0  0  0  0  0  0
   -7.7544    4.3397  -13.1328 N   0  0  0  0  0  0  0  0  0  0  0  0
   -7.0634    5.2792  -14.1492 C   0  0  0  0  0  0  0  0  0  0  0  0
   -6.3933    6.2202  -13.9762 O   0  0  0  0  0  0  0  0  0  0  0  0
   -7.2945    4.8508  -15.5407 C   0  0  0  0  0  0  0  0  0  0  0  0
   -8.5853    4.4785  -15.9627 C   0  0  0  0  0  0  0  0  0  0  0  0
   -8.8111    4.1685  -17.2994 C   0  0  0  0  0  0  0  0  0  0  0  0
  -10.4002    3.9768  -17.8691 Cl  0  0  0  0  0  0  0  0  0  0  0  0
   -7.7384    4.1823  -18.1553 C   0  0  0  0  0  0  0  0  0  0  0  0
   -7.6526    3.8680  -19.5060 N   0  0  0  0  0  0  0  0  0  0  0  0
   -6.3584    4.1521  -19.9535 C   0  0  0  0  0  0  0  0  0  0  0  0
   -5.9149    4.0077  -21.0802 O   0  0  0  0  0  0  0  0  0  0  0  0
   -5.6393    4.6097  -18.8372 N   0  0  0  0  0  0  0  0  0  0  0  0
   -6.4825    4.6012  -17.7353 C   0  0  0  0  0  0  0  0  0  0  0  0
   -6.2225    4.9486  -16.4370 C   0  0  0  0  0  0  0  0  0  0  0  0
   -7.2281    5.4997  -11.0960 C   0  0  0  0  0  0  0  0  0  0  0  0
   -7.1930    5.5653   -9.7150 C   0  0  0  0  0  0  0  0  0  0  0  0
   -7.7984    4.5348   -9.0400 C   0  0  0  0  0  0  0  0  0  0  0  0
   -7.8439    4.3468   -7.6060 C   0  0  0  0  0  0  0  0  0  0  0  0
   -7.1669    4.9836   -6.8188 O   0  0  0  0  0  0  0  0  0  0  0  0
  -10.2055    2.0366   -5.8861 C   0  0  0  0  0  0  0  0  0  0  0  0
  -10.6270    1.1113   -6.5592 O   0  0  0  0  0  0  0  0  0  0  0  0
  -10.8703    2.6407   -4.8720 N   0  0  0  0  0  0  0  0  0  0  0  0
  1  2  2  0
  2  3  1  0
  3  4  1  0
  4  5  1  6
  5  6  1  0
  6  7  1  0
  7  8  2  0
  8  9  1  0
  9 10  1  0
 10 11  1  0
 11 12  2  0
 11 13  1  0
 13 14  2  0
 14 15  1  0
 15 16  1  0
 15 17  2  0
 17 18  1  0
 18 19  1  0
 19 20  2  0
 19 21  1  0
 21 22  1  0
 22 23  2  0
  9 24  2  0
 24 25  1  0
 25 26  2  0
 26 27  1  0
 27 28  2  0
  4 29  1  0
 29 30  2  0
 29 31  1  0
 31  2  1  0
 27  5  1  0
 26  7  1  0
 23 13  1  0
 22 17  1  0
M  END
>  <name>  (125) 
P104082

>  <alias>  (125) 
None

>  <smina_score_min>  (125) 
-9.141

>  <exports>  (125) 
['/opt/xchem-fragalysis-2/maxwin/BulkDock/OUTPUTS/openbind_xx01zvns2b_c2_elabs_1LOUTNY.sdf', '/opt/xchem-fragalysis-2/maxwin/BulkDock/OUTPUTS/openbind_xx01zvns2b_c2_elabs_1LSYIIV.sdf']

>  <tags>  (125) 
syndirella_placed,openbind_xx01zvns2b_c2_elabs,openbind_xx01zvns2b_c2_elabs_scored_6.2plus,syndirella_product,openbind_xx01zvns2b_c2_elabs_scored,openbind_xx01zvns2b_c2_elabs_scored_top80percent,BulkDock Fragalysis export

>  <subsites>  (125) 
1 - Z4590/B/203/1

>  <smiles>  (125) 
O=C1C[C@H](N2Cc3cc(NC(=O)c4cc(Cl)c5[nH]c(=O)[nH]c5c4)ccc3C2=O)C(=O)N1

>  <HIPPO Pose ID>  (125) 
104082

>  <energy_score>  (125) 
-32.031155

>  <inchikey>  (125) 
KTLFONPEXRQUNH-AWEZNQCLSA-N

>  <gnina_score_min>  (125) 
6.309

>  <gnina_score>  (125) 
6.266

>  <ref_mols>  (125) 
Z4245a

>  <HIPPO Compound ID>  (125) 
164089

>  <distance_score>  (125) 
0.794074

>  <rmsd(smina/fragmenstein)>  (125) 
1.052

>  <ref_pdb>  (125) 
Z4245a

>  <inspiration_score>  (125) 
None

$$$$
P104086
     RDKit          3D

 32 36  0  0  0  0  0  0  0  0999 V2000
   -9.8600    2.2983   -6.1833 C   0  0  0  0  0  0  0  0  0  0  0  0
   -9.2280    2.8299   -7.3618 N   0  0  0  0  0  0  0  0  0  0  0  0
   -8.7006    4.0849   -7.4480 C   0  0  0  0  0  0  0  0  0  0  0  0
   -8.5749    4.9367   -6.5858 O   0  0  0  0  0  0  0  0  0  0  0  0
   -8.3784    4.2992   -8.8586 C   0  0  0  0  0  0  0  0  0  0  0  0
   -7.8965    5.4213   -9.5002 C   0  0  0  0  0  0  0  0  0  0  0  0
   -7.8046    5.3751  -10.8980 C   0  0  0  0  0  0  0  0  0  0  0  0
   -8.1903    4.2257  -11.6191 C   0  0  0  0  0  0  0  0  0  0  0  0
   -8.1459    4.2061  -13.0163 N   0  0  0  0  0  0  0  0  0  0  0  0
   -7.6188    5.2643  -14.0236 C   0  0  0  0  0  0  0  0  0  0  0  0
   -7.2119    6.3463  -13.8429 O   0  0  0  0  0  0  0  0  0  0  0  0
   -7.6894    4.7831  -15.4385 C   0  0  0  0  0  0  0  0  0  0  0  0
   -8.8058    4.0556  -15.9075 C   0  0  0  0  0  0  0  0  0  0  0  0
   -8.8824    3.6311  -17.2372 C   0  0  0  0  0  0  0  0  0  0  0  0
   -7.8246    3.9444  -18.0522 C   0  0  0  0  0  0  0  0  0  0  0  0
   -7.6348    3.6127  -19.3845 N   0  0  0  0  0  0  0  0  0  0  0  0
   -6.4518    4.2151  -19.8375 C   0  0  0  0  0  0  0  0  0  0  0  0
   -5.9993    4.1290  -20.9707 O   0  0  0  0  0  0  0  0  0  0  0  0
   -5.9117    4.9249  -18.7358 N   0  0  0  0  0  0  0  0  0  0  0  0
   -5.0792    6.0847  -18.9166 C   0  0  0  0  0  0  0  0  0  0  0  0
   -3.7020    5.9868  -18.3228 C   0  0  0  0  0  0  0  0  0  0  0  0
   -3.3509    6.7387  -17.1912 C   0  0  0  0  0  0  0  0  0  0  0  0
   -2.0467    6.7104  -16.6974 C   0  0  0  0  0  0  0  0  0  0  0  0
   -1.0797    5.9408  -17.3374 C   0  0  0  0  0  0  0  0  0  0  0  0
   -1.4209    5.1831  -18.4562 C   0  0  0  0  0  0  0  0  0  0  0  0
   -2.7266    5.1964  -18.9425 C   0  0  0  0  0  0  0  0  0  0  0  0
   -6.7489    4.7173  -17.6250 C   0  0  0  0  0  0  0  0  0  0  0  0
   -6.6576    5.1524  -16.3196 C   0  0  0  0  0  0  0  0  0  0  0  0
   -8.6662    3.0966  -10.9384 C   0  0  0  0  0  0  0  0  0  0  0  0
   -8.7543    3.1687   -9.5574 C   0  0  0  0  0  0  0  0  0  0  0  0
   -9.3338    2.2374   -8.5904 C   0  0  0  0  0  0  0  0  0  0  0  0
   -9.8884    1.2004   -8.8903 O   0  0  0  0  0  0  0  0  0  0  0  0
  1  2  1  0
  2  3  1  0
  3  4  2  0
  3  5  1  0
  5  6  2  0
  6  7  1  0
  7  8  2  0
  8  9  1  0
  9 10  1  0
 10 11  2  0
 10 12  1  0
 12 13  2  0
 13 14  1  0
 14 15  2  0
 15 16  1  0
 16 17  1  0
 17 18  2  0
 17 19  1  0
 19 20  1  0
 20 21  1  0
 21 22  2  0
 22 23  1  0
 23 24  2  0
 24 25  1  0
 25 26  2  0
 19 27  1  0
 27 28  2  0
  8 29  1  0
 29 30  2  0
 30 31  1  0
 31 32  2  0
 31  2  1  0
 30  5  1  0
 28 12  1  0
 27 15  1  0
 26 21  1  0
M  END
>  <name>  (126) 
P104086

>  <alias>  (126) 
None

>  <smina_score_min>  (126) 
-9.51

>  <exports>  (126) 
['/opt/xchem-fragalysis-2/maxwin/BulkDock/OUTPUTS/openbind_xx01zvns2b_c2_elabs_1LOUTNY.sdf', '/opt/xchem-fragalysis-2/maxwin/BulkDock/OUTPUTS/openbind_xx01zvns2b_c2_elabs_1LSYIIV.sdf']

>  <tags>  (126) 
syndirella_placed,openbind_xx01zvns2b_c2_elabs,openbind_xx01zvns2b_c2_elabs_scored_6.2plus,syndirella_product,openbind_xx01zvns2b_c2_elabs_scored,openbind_xx01zvns2b_c2_elabs_scored_top80percent,BulkDock Fragalysis export

>  <subsites>  (126) 
1 - Z4590/B/203/1

>  <smiles>  (126) 
CN1C(=O)c2ccc(NC(=O)c3ccc4[nH]c(=O)n(Cc5ccccc5)c4c3)cc2C1=O

>  <HIPPO Pose ID>  (126) 
104086

>  <energy_score>  (126) 
-8.026279

>  <inchikey>  (126) 
ISGYIGOYGPYTLH-UHFFFAOYSA-N

>  <gnina_score_min>  (126) 
6.232

>  <gnina_score>  (126) 
6.251

>  <ref_mols>  (126) 
Z4245a

>  <HIPPO Compound ID>  (126) 
164097

>  <distance_score>  (126) 
0.509468

>  <rmsd(smina/fragmenstein)>  (126) 
0.621

>  <ref_pdb>  (126) 
Z4245a

>  <inspiration_score>  (126) 
None

$$$$
P104090
     RDKit          3D

 32 36  0  0  0  0  0  0  0  0999 V2000
  -10.6102    2.9458   -5.4997 C   0  0  0  0  0  0  0  0  0  0  0  0
   -9.4265    2.3227   -6.2070 C   0  0  0  0  0  0  0  0  0  0  0  0
   -9.1313    2.9770   -7.4533 N   0  0  0  0  0  0  0  0  0  0  0  0
   -8.4688    4.2578   -7.5166 C   0  0  0  0  0  0  0  0  0  0  0  0
   -8.2995    4.4534   -8.9808 C   0  0  0  0  0  0  0  0  0  0  0  0
   -7.7958    5.5380   -9.6669 C   0  0  0  0  0  0  0  0  0  0  0  0
   -7.7516    5.4652  -11.0629 C   0  0  0  0  0  0  0  0  0  0  0  0
   -8.1961    4.3199  -11.7516 C   0  0  0  0  0  0  0  0  0  0  0  0
   -8.1491    4.2640  -13.1421 N   0  0  0  0  0  0  0  0  0  0  0  0
   -7.6776    5.3176  -14.1764 C   0  0  0  0  0  0  0  0  0  0  0  0
   -7.3282    6.4234  -14.0264 O   0  0  0  0  0  0  0  0  0  0  0  0
   -7.7297    4.7985  -15.5715 C   0  0  0  0  0  0  0  0  0  0  0  0
   -8.8345    4.0497  -16.0335 C   0  0  0  0  0  0  0  0  0  0  0  0
   -8.8907    3.5986  -17.3533 C   0  0  0  0  0  0  0  0  0  0  0  0
   -7.8263    3.9114  -18.1606 C   0  0  0  0  0  0  0  0  0  0  0  0
   -7.6217    3.5654  -19.4860 N   0  0  0  0  0  0  0  0  0  0  0  0
   -6.4445    4.1782  -19.9381 C   0  0  0  0  0  0  0  0  0  0  0  0
   -5.9892    4.0927  -21.0701 O   0  0  0  0  0  0  0  0  0  0  0  0
   -5.9146    4.8999  -18.8412 N   0  0  0  0  0  0  0  0  0  0  0  0
   -5.0873    6.0626  -19.0272 C   0  0  0  0  0  0  0  0  0  0  0  0
   -3.7211    5.9835  -18.4044 C   0  0  0  0  0  0  0  0  0  0  0  0
   -3.3960    6.7585  -17.2808 C   0  0  0  0  0  0  0  0  0  0  0  0
   -2.1035    6.7407  -16.7565 C   0  0  0  0  0  0  0  0  0  0  0  0
   -1.1218    5.9590  -17.3582 C   0  0  0  0  0  0  0  0  0  0  0  0
   -1.4366    5.1804  -18.4703 C   0  0  0  0  0  0  0  0  0  0  0  0
   -2.7308    5.1832  -18.9867 C   0  0  0  0  0  0  0  0  0  0  0  0
   -6.7604    4.6997  -17.7365 C   0  0  0  0  0  0  0  0  0  0  0  0
   -6.6868    5.1575  -16.4412 C   0  0  0  0  0  0  0  0  0  0  0  0
   -8.7012    3.2254  -11.0478 C   0  0  0  0  0  0  0  0  0  0  0  0
   -8.7514    3.3287   -9.6712 C   0  0  0  0  0  0  0  0  0  0  0  0
   -9.2985    2.3860   -8.6907 C   0  0  0  0  0  0  0  0  0  0  0  0
   -9.8275    1.3278   -8.9567 O   0  0  0  0  0  0  0  0  0  0  0  0
  1  2  1  0
  2  3  1  0
  3  4  1  0
  4  5  1  0
  5  6  2  0
  6  7  1  0
  7  8  2  0
  8  9  1  0
  9 10  1  0
 10 11  2  0
 10 12  1  0
 12 13  2  0
 13 14  1  0
 14 15  2  0
 15 16  1  0
 16 17  1  0
 17 18  2  0
 17 19  1  0
 19 20  1  0
 20 21  1  0
 21 22  2  0
 22 23  1  0
 23 24  2  0
 24 25  1  0
 25 26  2  0
 19 27  1  0
 27 28  2  0
  8 29  1  0
 29 30  2  0
 30 31  1  0
 31 32  2  0
 31  3  1  0
 30  5  1  0
 28 12  1  0
 27 15  1  0
 26 21  1  0
M  END
>  <name>  (127) 
P104090

>  <alias>  (127) 
None

>  <smina_score_min>  (127) 
-9.303

>  <exports>  (127) 
['/opt/xchem-fragalysis-2/maxwin/BulkDock/OUTPUTS/openbind_xx01zvns2b_c2_elabs_1LOUTNY.sdf', '/opt/xchem-fragalysis-2/maxwin/BulkDock/OUTPUTS/openbind_xx01zvns2b_c2_elabs_1LSYIIV.sdf']

>  <tags>  (127) 
syndirella_placed,openbind_xx01zvns2b_c2_elabs,openbind_xx01zvns2b_c2_elabs_scored_6.2plus,syndirella_product,openbind_xx01zvns2b_c2_elabs_scored,openbind_xx01zvns2b_c2_elabs_scored_top80percent,BulkDock Fragalysis export

>  <subsites>  (127) 
1 - Z4590/B/203/1

>  <smiles>  (127) 
CCN1Cc2ccc(NC(=O)c3ccc4[nH]c(=O)n(Cc5ccccc5)c4c3)cc2C1=O

>  <HIPPO Pose ID>  (127) 
104090

>  <energy_score>  (127) 
-27.141551

>  <inchikey>  (127) 
DDRXXVZPIOOCQB-UHFFFAOYSA-N

>  <gnina_score_min>  (127) 
6.257

>  <gnina_score>  (127) 
6.28

>  <ref_mols>  (127) 
Z4245a

>  <HIPPO Compound ID>  (127) 
164102

>  <distance_score>  (127) 
0.629659

>  <rmsd(smina/fragmenstein)>  (127) 
0.559

>  <ref_pdb>  (127) 
Z4245a

>  <inspiration_score>  (127) 
None

$$$$
P104092
     RDKit          3D

 32 36  0  0  0  0  0  0  0  0999 V2000
   -9.0941    2.5746   -6.0232 C   0  0  0  0  0  0  0  0  0  0  0  0
   -9.2536    3.3387   -7.2323 N   0  0  0  0  0  0  0  0  0  0  0  0
   -9.0269    2.5347   -8.4543 C   0  0  0  0  0  0  0  0  0  0  0  0
   -8.6961    3.5610   -9.4903 C   0  0  0  0  0  0  0  0  0  0  0  0
   -8.5963    3.4089  -10.8673 C   0  0  0  0  0  0  0  0  0  0  0  0
   -8.2365    4.5240  -11.6295 C   0  0  0  0  0  0  0  0  0  0  0  0
   -8.0968    4.3881  -13.0116 N   0  0  0  0  0  0  0  0  0  0  0  0
   -7.6810    5.4226  -14.0875 C   0  0  0  0  0  0  0  0  0  0  0  0
   -7.3165    6.5278  -13.9752 O   0  0  0  0  0  0  0  0  0  0  0  0
   -7.7327    4.8565  -15.4670 C   0  0  0  0  0  0  0  0  0  0  0  0
   -8.8222    4.0721  -15.9038 C   0  0  0  0  0  0  0  0  0  0  0  0
   -8.8893    3.6059  -17.2216 C   0  0  0  0  0  0  0  0  0  0  0  0
   -7.8473    3.9292  -18.0525 C   0  0  0  0  0  0  0  0  0  0  0  0
   -7.6520    3.5787  -19.3801 N   0  0  0  0  0  0  0  0  0  0  0  0
   -6.4878    4.2097  -19.8491 C   0  0  0  0  0  0  0  0  0  0  0  0
   -6.0379    4.1186  -20.9830 O   0  0  0  0  0  0  0  0  0  0  0  0
   -5.9744    4.9586  -18.7630 N   0  0  0  0  0  0  0  0  0  0  0  0
   -5.1594    6.1277  -18.9427 C   0  0  0  0  0  0  0  0  0  0  0  0
   -3.6862    5.8692  -18.8248 C   0  0  0  0  0  0  0  0  0  0  0  0
   -3.0245    6.0121  -17.5971 C   0  0  0  0  0  0  0  0  0  0  0  0
   -1.6454    5.8278  -17.5149 C   0  0  0  0  0  0  0  0  0  0  0  0
   -0.9215    5.4944  -18.6561 C   0  0  0  0  0  0  0  0  0  0  0  0
   -1.5753    5.3373  -19.8766 C   0  0  0  0  0  0  0  0  0  0  0  0
   -2.9521    5.5108  -19.9611 C   0  0  0  0  0  0  0  0  0  0  0  0
   -6.7967    4.7438  -17.6478 C   0  0  0  0  0  0  0  0  0  0  0  0
   -6.7124    5.2212  -16.3590 C   0  0  0  0  0  0  0  0  0  0  0  0
   -8.0004    5.7579  -11.0001 C   0  0  0  0  0  0  0  0  0  0  0  0
   -8.0966    5.8962   -9.6105 C   0  0  0  0  0  0  0  0  0  0  0  0
   -8.4348    4.7858   -8.8606 C   0  0  0  0  0  0  0  0  0  0  0  0
   -8.4858    4.6002   -7.3587 C   0  0  0  0  0  0  0  0  0  0  0  0
   -9.2129    5.7031   -6.5743 C   0  0  0  0  0  0  0  0  0  0  0  0
   -7.0289    4.6052   -6.8575 C   0  0  0  0  0  0  0  0  0  0  0  0
  1  2  1  0
  2  3  1  0
  3  4  1  0
  4  5  2  0
  5  6  1  0
  6  7  1  0
  7  8  1  0
  8  9  2  0
  8 10  1  0
 10 11  2  0
 11 12  1  0
 12 13  2  0
 13 14  1  0
 14 15  1  0
 15 16  2  0
 15 17  1  0
 17 18  1  0
 18 19  1  0
 19 20  2  0
 20 21  1  0
 21 22  2  0
 22 23  1  0
 23 24  2  0
 17 25  1  0
 25 26  2  0
  6 27  2  0
 27 28  1  0
 28 29  2  0
 29 30  1  0
 30 31  1  0
 30 32  1  0
 30  2  1  0
 29  4  1  0
 26 10  1  0
 25 13  1  0
 24 19  1  0
M  END
>  <name>  (128) 
P104092

>  <alias>  (128) 
None

>  <smina_score_min>  (128) 
-9.082

>  <exports>  (128) 
['/opt/xchem-fragalysis-2/maxwin/BulkDock/OUTPUTS/openbind_xx01zvns2b_c2_elabs_1LOUTNY.sdf', '/opt/xchem-fragalysis-2/maxwin/BulkDock/OUTPUTS/openbind_xx01zvns2b_c2_elabs_1LSYIIV.sdf']

>  <tags>  (128) 
syndirella_placed,openbind_xx01zvns2b_c2_elabs,openbind_xx01zvns2b_c2_elabs_scored_6.2plus,syndirella_product,openbind_xx01zvns2b_c2_elabs_scored,openbind_xx01zvns2b_c2_elabs_scored_top80percent,BulkDock Fragalysis export

>  <subsites>  (128) 
1 - Z4590/B/203/1

>  <smiles>  (128) 
CN1Cc2cc(NC(=O)c3ccc4[nH]c(=O)n(Cc5ccccc5)c4c3)ccc2C1(C)C

>  <HIPPO Pose ID>  (128) 
104092

>  <energy_score>  (128) 
-13.356868

>  <inchikey>  (128) 
CHZJQMLTWFIMJX-UHFFFAOYSA-N

>  <gnina_score_min>  (128) 
6.376

>  <gnina_score>  (128) 
6.324

>  <ref_mols>  (128) 
Z4245a

>  <HIPPO Compound ID>  (128) 
164104

>  <distance_score>  (128) 
0.694587

>  <rmsd(smina/fragmenstein)>  (128) 
0.509

>  <ref_pdb>  (128) 
Z4245a

>  <inspiration_score>  (128) 
None

$$$$
P104093
     RDKit          3D

 32 36  0  0  0  0  0  0  0  0999 V2000
  -10.6480    2.1970   -5.8090 C   0  0  0  0  0  0  0  0  0  0  0  0
   -9.1857    2.3566   -6.1590 C   0  0  0  0  0  0  0  0  0  0  0  0
   -8.9870    2.9891   -7.4343 N   0  0  0  0  0  0  0  0  0  0  0  0
   -8.9966    2.2325   -8.6777 C   0  0  0  0  0  0  0  0  0  0  0  0
   -8.6326    3.2811   -9.6756 C   0  0  0  0  0  0  0  0  0  0  0  0
   -8.4935    3.1911  -11.0501 C   0  0  0  0  0  0  0  0  0  0  0  0
   -8.1238    4.3450  -11.7566 C   0  0  0  0  0  0  0  0  0  0  0  0
   -7.9678    4.2625  -13.1386 N   0  0  0  0  0  0  0  0  0  0  0  0
   -7.6466    5.3607  -14.1814 C   0  0  0  0  0  0  0  0  0  0  0  0
   -7.3870    6.4906  -14.0358 O   0  0  0  0  0  0  0  0  0  0  0  0
   -7.6965    4.8314  -15.5697 C   0  0  0  0  0  0  0  0  0  0  0  0
   -8.8008    4.0685  -16.0097 C   0  0  0  0  0  0  0  0  0  0  0  0
   -8.8687    3.6082  -17.3255 C   0  0  0  0  0  0  0  0  0  0  0  0
   -7.8141    3.9217  -18.1462 C   0  0  0  0  0  0  0  0  0  0  0  0
   -7.6208    3.5660  -19.4710 N   0  0  0  0  0  0  0  0  0  0  0  0
   -6.4488    4.1774  -19.9383 C   0  0  0  0  0  0  0  0  0  0  0  0
   -6.0027    4.0807  -21.0731 O   0  0  0  0  0  0  0  0  0  0  0  0
   -5.9119    4.9104  -18.8529 N   0  0  0  0  0  0  0  0  0  0  0  0
   -5.0795    6.0670  -19.0547 C   0  0  0  0  0  0  0  0  0  0  0  0
   -3.7154    5.9918  -18.4269 C   0  0  0  0  0  0  0  0  0  0  0  0
   -2.7281    5.1757  -18.9920 C   0  0  0  0  0  0  0  0  0  0  0  0
   -1.4359    5.1731  -18.4707 C   0  0  0  0  0  0  0  0  0  0  0  0
   -1.1201    5.9678  -17.3704 C   0  0  0  0  0  0  0  0  0  0  0  0
   -2.0984    6.7670  -16.7864 C   0  0  0  0  0  0  0  0  0  0  0  0
   -3.3888    6.7847  -17.3162 C   0  0  0  0  0  0  0  0  0  0  0  0
   -6.7471    4.7187  -17.7389 C   0  0  0  0  0  0  0  0  0  0  0  0
   -6.6640    5.1906  -16.4493 C   0  0  0  0  0  0  0  0  0  0  0  0
   -7.9050    5.5602  -11.0805 C   0  0  0  0  0  0  0  0  0  0  0  0
   -8.0547    5.6470   -9.6962 C   0  0  0  0  0  0  0  0  0  0  0  0
   -8.4144    4.4964   -9.0281 C   0  0  0  0  0  0  0  0  0  0  0  0
   -8.6376    4.3098   -7.5940 C   0  0  0  0  0  0  0  0  0  0  0  0
   -8.5255    5.1845   -6.7546 O   0  0  0  0  0  0  0  0  0  0  0  0
  1  2  1  0
  2  3  1  0
  3  4  1  0
  4  5  1  0
  5  6  2  0
  6  7  1  0
  7  8  1  0
  8  9  1  0
  9 10  2  0
  9 11  1  0
 11 12  2  0
 12 13  1  0
 13 14  2  0
 14 15  1  0
 15 16  1  0
 16 17  2  0
 16 18  1  0
 18 19  1  0
 19 20  1  0
 20 21  2  0
 21 22  1  0
 22 23  2  0
 23 24  1  0
 24 25  2  0
 18 26  1  0
 26 27  2  0
  7 28  2  0
 28 29  1  0
 29 30  2  0
 30 31  1  0
 31 32  2  0
 31  3  1  0
 30  5  1  0
 27 11  1  0
 26 14  1  0
 25 20  1  0
M  END
>  <name>  (129) 
P104093

>  <alias>  (129) 
None

>  <smina_score_min>  (129) 
-9.671

>  <exports>  (129) 
['/opt/xchem-fragalysis-2/maxwin/BulkDock/OUTPUTS/openbind_xx01zvns2b_c2_elabs_1LOUTNY.sdf', '/opt/xchem-fragalysis-2/maxwin/BulkDock/OUTPUTS/openbind_xx01zvns2b_c2_elabs_1LSYIIV.sdf']

>  <tags>  (129) 
syndirella_placed,openbind_xx01zvns2b_c2_elabs,openbind_xx01zvns2b_c2_elabs_scored_6.2plus,syndirella_product,openbind_xx01zvns2b_c2_elabs_scored,openbind_xx01zvns2b_c2_elabs_scored_top80percent,BulkDock Fragalysis export

>  <subsites>  (129) 
1 - Z4590/B/203/1

>  <smiles>  (129) 
CCN1Cc2cc(NC(=O)c3ccc4[nH]c(=O)n(Cc5ccccc5)c4c3)ccc2C1=O

>  <HIPPO Pose ID>  (129) 
104093

>  <energy_score>  (129) 
-26.873872

>  <inchikey>  (129) 
GHCNIIHHONSDAW-UHFFFAOYSA-N

>  <gnina_score_min>  (129) 
6.344

>  <gnina_score>  (129) 
6.284

>  <ref_mols>  (129) 
Z4245a

>  <HIPPO Compound ID>  (129) 
164107

>  <distance_score>  (129) 
0.643377

>  <rmsd(smina/fragmenstein)>  (129) 
0.352

>  <ref_pdb>  (129) 
Z4245a

>  <inspiration_score>  (129) 
None

$$$$
P104095
     RDKit          3D

 32 35  0  0  0  0  0  0  0  0999 V2000
  -11.1987    2.0381   -5.3770 C   0  0  0  0  0  0  0  0  0  0  0  0
  -10.7167    3.4312   -5.0426 C   0  0  0  0  0  0  0  0  0  0  0  0
   -9.2180    3.5645   -4.8966 C   0  0  0  0  0  0  0  0  0  0  0  0
   -8.4486    2.9146   -6.0344 C   0  0  0  0  0  0  0  0  0  0  0  0
   -8.7528    3.4592   -7.3330 N   0  0  0  0  0  0  0  0  0  0  0  0
   -8.8301    2.6067   -8.5259 C   0  0  0  0  0  0  0  0  0  0  0  0
   -8.5680    3.5798   -9.6294 C   0  0  0  0  0  0  0  0  0  0  0  0
   -8.4913    3.3968  -11.0016 C   0  0  0  0  0  0  0  0  0  0  0  0
   -8.1569    4.5079  -11.7932 C   0  0  0  0  0  0  0  0  0  0  0  0
   -8.0075    4.3648  -13.1689 N   0  0  0  0  0  0  0  0  0  0  0  0
   -7.5770    5.3908  -14.2457 C   0  0  0  0  0  0  0  0  0  0  0  0
   -7.2070    6.4939  -14.1358 O   0  0  0  0  0  0  0  0  0  0  0  0
   -7.6390    4.8287  -15.6164 C   0  0  0  0  0  0  0  0  0  0  0  0
   -8.7673    4.0943  -16.0462 C   0  0  0  0  0  0  0  0  0  0  0  0
   -8.8601    3.6440  -17.3639 C   0  0  0  0  0  0  0  0  0  0  0  0
   -7.8056    3.9382  -18.1932 C   0  0  0  0  0  0  0  0  0  0  0  0
   -7.6279    3.5841  -19.5216 N   0  0  0  0  0  0  0  0  0  0  0  0
   -6.4287    4.1465  -19.9853 C   0  0  0  0  0  0  0  0  0  0  0  0
   -5.9668    4.0161  -21.1098 O   0  0  0  0  0  0  0  0  0  0  0  0
   -5.8726    4.8572  -18.9001 N   0  0  0  0  0  0  0  0  0  0  0  0
   -4.7781    5.7903  -19.0104 C   0  0  0  0  0  0  0  0  0  0  0  0
   -3.4198    5.1887  -18.6237 C   0  0  0  0  0  0  0  0  0  0  0  0
   -2.3076    6.1549  -18.7571 N   0  0  0  0  0  0  0  0  0  0  0  0
   -1.9621    6.3779  -20.1660 C   0  0  0  0  0  0  0  0  0  0  0  0
   -1.1239    5.6501  -18.0548 C   0  0  0  0  0  0  0  0  0  0  0  0
   -6.7073    4.6942  -17.7872 C   0  0  0  0  0  0  0  0  0  0  0  0
   -6.5966    5.1554  -16.4989 C   0  0  0  0  0  0  0  0  0  0  0  0
   -7.9386    5.7714  -11.2099 C   0  0  0  0  0  0  0  0  0  0  0  0
   -8.0252    5.9509   -9.8365 C   0  0  0  0  0  0  0  0  0  0  0  0
   -8.3304    4.8408   -9.0858 C   0  0  0  0  0  0  0  0  0  0  0  0
   -8.3922    4.7561   -7.6359 C   0  0  0  0  0  0  0  0  0  0  0  0
   -8.1149    5.6728   -6.8843 O   0  0  0  0  0  0  0  0  0  0  0  0
  1  2  1  0
  2  3  1  0
  3  4  1  0
  4  5  1  0
  5  6  1  0
  6  7  1  0
  7  8  2  0
  8  9  1  0
  9 10  1  0
 10 11  1  0
 11 12  2  0
 11 13  1  0
 13 14  2  0
 14 15  1  0
 15 16  2  0
 16 17  1  0
 17 18  1  0
 18 19  2  0
 18 20  1  0
 20 21  1  0
 21 22  1  0
 22 23  1  0
 23 24  1  0
 23 25  1  0
 20 26  1  0
 26 27  2  0
  9 28  2  0
 28 29  1  0
 29 30  2  0
 30 31  1  0
 31 32  2  0
 31  5  1  0
 30  7  1  0
 27 13  1  0
 26 16  1  0
M  END
>  <name>  (130) 
P104095

>  <alias>  (130) 
None

>  <smina_score_min>  (130) 
-7.701

>  <exports>  (130) 
['/opt/xchem-fragalysis-2/maxwin/BulkDock/OUTPUTS/openbind_xx01zvns2b_c2_elabs_1LOUTNY.sdf', '/opt/xchem-fragalysis-2/maxwin/BulkDock/OUTPUTS/openbind_xx01zvns2b_c2_elabs_1LSYIIV.sdf']

>  <tags>  (130) 
syndirella_placed,openbind_xx01zvns2b_c2_elabs,openbind_xx01zvns2b_c2_elabs_scored_6.2plus,syndirella_product,openbind_xx01zvns2b_c2_elabs_scored,openbind_xx01zvns2b_c2_elabs_scored_top80percent,BulkDock Fragalysis export

>  <subsites>  (130) 
1 - Z4590/B/203/1

>  <smiles>  (130) 
CCCCN1Cc2cc(NC(=O)c3ccc4[nH]c(=O)n(CCN(C)C)c4c3)ccc2C1=O

>  <HIPPO Pose ID>  (130) 
104095

>  <energy_score>  (130) 
-46.531786

>  <inchikey>  (130) 
KRPQPUJZYMCNNC-UHFFFAOYSA-N

>  <gnina_score_min>  (130) 
6.234

>  <gnina_score>  (130) 
6.202

>  <ref_mols>  (130) 
Z4245a

>  <HIPPO Compound ID>  (130) 
164111

>  <distance_score>  (130) 
0.779748

>  <rmsd(smina/fragmenstein)>  (130) 
0.642

>  <ref_pdb>  (130) 
Z4245a

>  <inspiration_score>  (130) 
None

$$$$
P104099
     RDKit          3D

 32 35  0  0  0  0  0  0  0  0999 V2000
   -9.5631    4.8745   -2.6140 C   0  0  0  0  0  0  0  0  0  0  0  0
   -8.8768    4.0413   -3.6989 C   0  0  0  0  0  0  0  0  0  0  0  0
   -7.6013    4.7600   -4.1312 C   0  0  0  0  0  0  0  0  0  0  0  0
   -9.8383    3.7515   -4.8717 C   0  0  0  0  0  0  0  0  0  0  0  0
   -9.2894    2.8036   -5.9688 C   0  0  0  0  0  0  0  0  0  0  0  0
   -9.3658    3.4235   -7.2844 N   0  0  0  0  0  0  0  0  0  0  0  0
   -8.4220    4.5326   -7.4607 C   0  0  0  0  0  0  0  0  0  0  0  0
   -8.2587    4.6235   -8.9364 C   0  0  0  0  0  0  0  0  0  0  0  0
   -7.7833    5.6822   -9.6776 C   0  0  0  0  0  0  0  0  0  0  0  0
   -7.7368    5.5339  -11.0594 C   0  0  0  0  0  0  0  0  0  0  0  0
   -8.1536    4.3426  -11.6797 C   0  0  0  0  0  0  0  0  0  0  0  0
   -8.1099    4.2512  -13.0722 N   0  0  0  0  0  0  0  0  0  0  0  0
   -7.6196    5.2721  -14.1348 C   0  0  0  0  0  0  0  0  0  0  0  0
   -7.2491    6.3754  -14.0123 O   0  0  0  0  0  0  0  0  0  0  0  0
   -7.6729    4.7438  -15.5235 C   0  0  0  0  0  0  0  0  0  0  0  0
   -8.8039    4.0461  -15.9985 C   0  0  0  0  0  0  0  0  0  0  0  0
   -8.8804    3.6368  -17.3322 C   0  0  0  0  0  0  0  0  0  0  0  0
   -7.8099    3.9392  -18.1381 C   0  0  0  0  0  0  0  0  0  0  0  0
   -7.6213    3.6264  -19.4757 N   0  0  0  0  0  0  0  0  0  0  0  0
   -6.4142    4.1926  -19.9098 C   0  0  0  0  0  0  0  0  0  0  0  0
   -5.9492    4.1234  -21.0367 O   0  0  0  0  0  0  0  0  0  0  0  0
   -5.8554    4.8516  -18.7918 N   0  0  0  0  0  0  0  0  0  0  0  0
   -4.7538    5.7843  -18.8764 C   0  0  0  0  0  0  0  0  0  0  0  0
   -3.3659    5.1761  -19.0251 C   0  0  0  0  0  0  0  0  0  0  0  0
   -2.4451    6.1720  -19.0894 F   0  0  0  0  0  0  0  0  0  0  0  0
   -3.0431    4.4141  -17.9569 F   0  0  0  0  0  0  0  0  0  0  0  0
   -3.2281    4.4330  -20.1393 F   0  0  0  0  0  0  0  0  0  0  0  0
   -6.7073    4.6661  -17.6931 C   0  0  0  0  0  0  0  0  0  0  0  0
   -6.6120    5.0805  -16.3851 C   0  0  0  0  0  0  0  0  0  0  0  0
   -8.6185    3.2665  -10.9065 C   0  0  0  0  0  0  0  0  0  0  0  0
   -8.6715    3.4274   -9.5274 C   0  0  0  0  0  0  0  0  0  0  0  0
   -9.1425    2.5039   -8.4335 C   0  0  0  0  0  0  0  0  0  0  0  0
  1  2  1  0
  2  3  1  0
  2  4  1  0
  4  5  1  0
  5  6  1  0
  6  7  1  0
  7  8  1  0
  8  9  2  0
  9 10  1  0
 10 11  2  0
 11 12  1  0
 12 13  1  0
 13 14  2  0
 13 15  1  0
 15 16  2  0
 16 17  1  0
 17 18  2  0
 18 19  1  0
 19 20  1  0
 20 21  2  0
 20 22  1  0
 22 23  1  0
 23 24  1  0
 24 25  1  0
 24 26  1  0
 24 27  1  0
 22 28  1  0
 28 29  2  0
 11 30  1  0
 30 31  2  0
 31 32  1  0
 32  6  1  0
 31  8  1  0
 29 15  1  0
 28 18  1  0
M  END
>  <name>  (131) 
P104099

>  <alias>  (131) 
None

>  <smina_score_min>  (131) 
-9.061

>  <exports>  (131) 
['/opt/xchem-fragalysis-2/maxwin/BulkDock/OUTPUTS/openbind_xx01zvns2b_c2_elabs_1LOUTNY.sdf', '/opt/xchem-fragalysis-2/maxwin/BulkDock/OUTPUTS/openbind_xx01zvns2b_c2_elabs_1LSYIIV.sdf']

>  <tags>  (131) 
syndirella_placed,openbind_xx01zvns2b_c2_elabs,openbind_xx01zvns2b_c2_elabs_scored_6.2plus,syndirella_product,openbind_xx01zvns2b_c2_elabs_scored,openbind_xx01zvns2b_c2_elabs_scored_top80percent,BulkDock Fragalysis export

>  <subsites>  (131) 
1 - Z4590/B/203/1

>  <smiles>  (131) 
CC(C)CCN1Cc2ccc(NC(=O)c3ccc4[nH]c(=O)n(CC(F)(F)F)c4c3)cc2C1

>  <HIPPO Pose ID>  (131) 
104099

>  <energy_score>  (131) 
-43.573614

>  <inchikey>  (131) 
FHAJRDSGRZIYSC-UHFFFAOYSA-N

>  <gnina_score_min>  (131) 
6.349

>  <gnina_score>  (131) 
6.329

>  <ref_mols>  (131) 
Z4245a

>  <HIPPO Compound ID>  (131) 
164114

>  <distance_score>  (131) 
0.663705

>  <rmsd(smina/fragmenstein)>  (131) 
0.465

>  <ref_pdb>  (131) 
Z4245a

>  <inspiration_score>  (131) 
None

$$$$
P104100
     RDKit          3D

 32 35  0  0  0  0  0  0  0  0999 V2000
   -6.4264    5.0973   -3.6035 C   0  0  0  0  0  0  0  0  0  0  0  0
   -7.2542    4.1208   -4.2273 O   0  0  0  0  0  0  0  0  0  0  0  0
   -8.6052    4.5885   -4.3242 C   0  0  0  0  0  0  0  0  0  0  0  0
   -9.5701    3.5146   -4.8260 C   0  0  0  0  0  0  0  0  0  0  0  0
   -9.1480    2.6841   -6.0479 C   0  0  0  0  0  0  0  0  0  0  0  0
   -9.3165    3.3781   -7.3177 N   0  0  0  0  0  0  0  0  0  0  0  0
   -8.4027    4.5102   -7.4961 C   0  0  0  0  0  0  0  0  0  0  0  0
   -8.2430    4.6181   -8.9709 C   0  0  0  0  0  0  0  0  0  0  0  0
   -7.7758    5.6882   -9.7011 C   0  0  0  0  0  0  0  0  0  0  0  0
   -7.7201    5.5508  -11.0833 C   0  0  0  0  0  0  0  0  0  0  0  0
   -8.1174    4.3575  -11.7115 C   0  0  0  0  0  0  0  0  0  0  0  0
   -8.0304    4.2550  -13.0985 N   0  0  0  0  0  0  0  0  0  0  0  0
   -7.5162    5.2687  -14.1525 C   0  0  0  0  0  0  0  0  0  0  0  0
   -7.0148    6.3163  -14.0151 O   0  0  0  0  0  0  0  0  0  0  0  0
   -7.6496    4.7649  -15.5438 C   0  0  0  0  0  0  0  0  0  0  0  0
   -8.8235    4.1175  -15.9867 C   0  0  0  0  0  0  0  0  0  0  0  0
   -8.9583    3.7152  -17.3186 C   0  0  0  0  0  0  0  0  0  0  0  0
   -7.8929    3.9569  -18.1497 C   0  0  0  0  0  0  0  0  0  0  0  0
   -7.7405    3.6250  -19.4877 N   0  0  0  0  0  0  0  0  0  0  0  0
   -6.5019    4.1021  -19.9363 C   0  0  0  0  0  0  0  0  0  0  0  0
   -6.0362    3.9790  -21.0585 O   0  0  0  0  0  0  0  0  0  0  0  0
   -5.8840    4.7144  -18.8281 N   0  0  0  0  0  0  0  0  0  0  0  0
   -4.6790    5.5025  -18.9059 C   0  0  0  0  0  0  0  0  0  0  0  0
   -4.8961    6.9301  -19.3989 C   0  0  0  0  0  0  0  0  0  0  0  0
   -3.7312    7.6241  -19.3193 F   0  0  0  0  0  0  0  0  0  0  0  0
   -5.3005    6.9934  -20.6834 F   0  0  0  0  0  0  0  0  0  0  0  0
   -5.7991    7.6036  -18.6464 F   0  0  0  0  0  0  0  0  0  0  0  0
   -6.7419    4.6184  -17.7269 C   0  0  0  0  0  0  0  0  0  0  0  0
   -6.5956    5.0433  -16.4292 C   0  0  0  0  0  0  0  0  0  0  0  0
   -8.5874    3.2766  -10.9520 C   0  0  0  0  0  0  0  0  0  0  0  0
   -8.6507    3.4290   -9.5748 C   0  0  0  0  0  0  0  0  0  0  0  0
   -9.1144    2.4895   -8.4982 C   0  0  0  0  0  0  0  0  0  0  0  0
  1  2  1  0
  2  3  1  0
  3  4  1  0
  4  5  1  0
  5  6  1  0
  6  7  1  0
  7  8  1  0
  8  9  2  0
  9 10  1  0
 10 11  2  0
 11 12  1  0
 12 13  1  0
 13 14  2  0
 13 15  1  0
 15 16  2  0
 16 17  1  0
 17 18  2  0
 18 19  1  0
 19 20  1  0
 20 21  2  0
 20 22  1  0
 22 23  1  0
 23 24  1  0
 24 25  1  0
 24 26  1  0
 24 27  1  0
 22 28  1  0
 28 29  2  0
 11 30  1  0
 30 31  2  0
 31 32  1  0
 32  6  1  0
 31  8  1  0
 29 15  1  0
 28 18  1  0
M  END
>  <name>  (132) 
P104100

>  <alias>  (132) 
None

>  <smina_score_min>  (132) 
-8.483

>  <exports>  (132) 
['/opt/xchem-fragalysis-2/maxwin/BulkDock/OUTPUTS/openbind_xx01zvns2b_c2_elabs_1LOUTNY.sdf', '/opt/xchem-fragalysis-2/maxwin/BulkDock/OUTPUTS/openbind_xx01zvns2b_c2_elabs_1LSYIIV.sdf']

>  <tags>  (132) 
syndirella_placed,openbind_xx01zvns2b_c2_elabs,openbind_xx01zvns2b_c2_elabs_scored_6.2plus,syndirella_product,openbind_xx01zvns2b_c2_elabs_scored,openbind_xx01zvns2b_c2_elabs_scored_top80percent,BulkDock Fragalysis export

>  <subsites>  (132) 
1 - Z4590/B/203/1

>  <smiles>  (132) 
COCCCN1Cc2ccc(NC(=O)c3ccc4[nH]c(=O)n(CC(F)(F)F)c4c3)cc2C1

>  <HIPPO Pose ID>  (132) 
104100

>  <energy_score>  (132) 
-34.70776

>  <inchikey>  (132) 
JOSOVTPHHSDSGT-UHFFFAOYSA-N

>  <gnina_score_min>  (132) 
6.252

>  <gnina_score>  (132) 
6.214

>  <ref_mols>  (132) 
Z4245a

>  <HIPPO Compound ID>  (132) 
164115

>  <distance_score>  (132) 
0.658916

>  <rmsd(smina/fragmenstein)>  (132) 
0.729

>  <ref_pdb>  (132) 
Z4245a

>  <inspiration_score>  (132) 
None

$$$$
P104107
     RDKit          3D

 32 35  0  0  0  0  0  0  0  0999 V2000
   -2.5451    5.7678  -17.4319 C   0  0  0  0  0  0  0  0  0  0  0  0
   -2.9143    4.9530  -18.5891 N   0  0  0  0  0  0  0  0  0  0  0  0
   -1.7102    4.4527  -19.2505 C   0  0  0  0  0  0  0  0  0  0  0  0
   -3.7213    5.7065  -19.5645 C   0  0  0  0  0  0  0  0  0  0  0  0
   -5.1348    6.0472  -19.0777 C   0  0  0  0  0  0  0  0  0  0  0  0
   -5.9859    4.8982  -18.8828 N   0  0  0  0  0  0  0  0  0  0  0  0
   -6.5178    4.1517  -19.9610 C   0  0  0  0  0  0  0  0  0  0  0  0
   -6.0800    4.0524  -21.0990 O   0  0  0  0  0  0  0  0  0  0  0  0
   -7.6870    3.5408  -19.4854 N   0  0  0  0  0  0  0  0  0  0  0  0
   -7.8745    3.9013  -18.1617 C   0  0  0  0  0  0  0  0  0  0  0  0
   -8.9188    3.5862  -17.3298 C   0  0  0  0  0  0  0  0  0  0  0  0
   -8.8350    4.0384  -16.0112 C   0  0  0  0  0  0  0  0  0  0  0  0
   -7.7241    4.7939  -15.5792 C   0  0  0  0  0  0  0  0  0  0  0  0
   -7.6339    5.3105  -14.1889 C   0  0  0  0  0  0  0  0  0  0  0  0
   -7.2872    6.4192  -14.0526 O   0  0  0  0  0  0  0  0  0  0  0  0
   -7.9978    4.2342  -13.1332 N   0  0  0  0  0  0  0  0  0  0  0  0
   -8.0983    4.3246  -11.7457 C   0  0  0  0  0  0  0  0  0  0  0  0
   -7.7122    5.5124  -11.1009 C   0  0  0  0  0  0  0  0  0  0  0  0
   -7.7754    5.6314   -9.7169 C   0  0  0  0  0  0  0  0  0  0  0  0
   -8.2413    4.5492   -9.0035 C   0  0  0  0  0  0  0  0  0  0  0  0
   -8.6425    3.3641   -9.6248 C   0  0  0  0  0  0  0  0  0  0  0  0
   -8.5648    3.2301  -11.0024 C   0  0  0  0  0  0  0  0  0  0  0  0
   -9.1180    2.4080   -8.5651 C   0  0  0  0  0  0  0  0  0  0  0  0
   -9.3384    3.2937   -7.3957 N   0  0  0  0  0  0  0  0  0  0  0  0
   -9.2932    2.6381   -6.0819 C   0  0  0  0  0  0  0  0  0  0  0  0
   -9.2085    3.5969   -4.8696 C   0  0  0  0  0  0  0  0  0  0  0  0
   -7.9392    4.0620   -4.7068 F   0  0  0  0  0  0  0  0  0  0  0  0
   -9.5673    3.0321   -3.7015 F   0  0  0  0  0  0  0  0  0  0  0  0
  -10.0061    4.6847   -5.0284 F   0  0  0  0  0  0  0  0  0  0  0  0
   -8.3988    4.4140   -7.5325 C   0  0  0  0  0  0  0  0  0  0  0  0
   -6.7062    5.1619  -16.4734 C   0  0  0  0  0  0  0  0  0  0  0  0
   -6.8092    4.7022  -17.7649 C   0  0  0  0  0  0  0  0  0  0  0  0
  1  2  1  0
  2  3  1  0
  2  4  1  0
  4  5  1  0
  5  6  1  0
  6  7  1  0
  7  8  2  0
  7  9  1  0
  9 10  1  0
 10 11  2  0
 11 12  1  0
 12 13  2  0
 13 14  1  0
 14 15  2  0
 14 16  1  0
 16 17  1  0
 17 18  2  0
 18 19  1  0
 19 20  2  0
 20 21  1  0
 21 22  2  0
 21 23  1  0
 23 24  1  0
 24 25  1  0
 25 26  1  0
 26 27  1  0
 26 28  1  0
 26 29  1  0
 24 30  1  0
 13 31  1  0
 31 32  2  0
 32  6  1  0
 32 10  1  0
 22 17  1  0
 30 20  1  0
M  END
>  <name>  (133) 
P104107

>  <alias>  (133) 
None

>  <smina_score_min>  (133) 
-9.244

>  <exports>  (133) 
['/opt/xchem-fragalysis-2/maxwin/BulkDock/OUTPUTS/openbind_xx01zvns2b_c2_elabs_1LOUTNY.sdf', '/opt/xchem-fragalysis-2/maxwin/BulkDock/OUTPUTS/openbind_xx01zvns2b_c2_elabs_1LSYIIV.sdf']

>  <tags>  (133) 
syndirella_placed,openbind_xx01zvns2b_c2_elabs,openbind_xx01zvns2b_c2_elabs_scored_6.2plus,syndirella_product,openbind_xx01zvns2b_c2_elabs_scored,openbind_xx01zvns2b_c2_elabs_scored_top80percent,BulkDock Fragalysis export

>  <subsites>  (133) 
1 - Z4590/B/203/1

>  <smiles>  (133) 
CN(C)CCn1c(=O)[nH]c2ccc(C(=O)Nc3ccc4c(c3)CN(CC(F)(F)F)C4)cc21

>  <HIPPO Pose ID>  (133) 
104107

>  <energy_score>  (133) 
-20.480939

>  <inchikey>  (133) 
RYYGXRWTUYHMAB-UHFFFAOYSA-N

>  <gnina_score_min>  (133) 
6.316

>  <gnina_score>  (133) 
6.222

>  <ref_mols>  (133) 
Z4245a

>  <HIPPO Compound ID>  (133) 
164123

>  <distance_score>  (133) 
0.683774

>  <rmsd(smina/fragmenstein)>  (133) 
0.813

>  <ref_pdb>  (133) 
Z4245a

>  <inspiration_score>  (133) 
None

$$$$
P104109
     RDKit          3D

 32 35  0  0  0  0  0  0  0  0999 V2000
   -9.5668    4.2602   -2.9069 C   0  0  0  0  0  0  0  0  0  0  0  0
   -8.5036    4.8864   -3.7960 C   0  0  0  0  0  0  0  0  0  0  0  0
   -9.0098    6.1812   -4.4258 C   0  0  0  0  0  0  0  0  0  0  0  0
   -7.9569    3.8839   -4.8267 C   0  0  0  0  0  0  0  0  0  0  0  0
   -8.9353    3.3376   -5.8978 C   0  0  0  0  0  0  0  0  0  0  0  0
   -8.3823    3.6079   -7.2095 N   0  0  0  0  0  0  0  0  0  0  0  0
   -8.3937    5.0181   -7.5687 C   0  0  0  0  0  0  0  0  0  0  0  0
   -8.3130    5.0057   -9.0468 C   0  0  0  0  0  0  0  0  0  0  0  0
   -8.0297    6.0753   -9.8618 C   0  0  0  0  0  0  0  0  0  0  0  0
   -7.9978    5.8430  -11.2253 C   0  0  0  0  0  0  0  0  0  0  0  0
   -8.2568    4.5664  -11.7565 C   0  0  0  0  0  0  0  0  0  0  0  0
   -8.1993    4.4185  -13.1422 N   0  0  0  0  0  0  0  0  0  0  0  0
   -7.7313    5.4072  -14.2421 C   0  0  0  0  0  0  0  0  0  0  0  0
   -7.3945    6.5248  -14.1634 O   0  0  0  0  0  0  0  0  0  0  0  0
   -7.7470    4.8245  -15.6060 C   0  0  0  0  0  0  0  0  0  0  0  0
   -8.8208    4.0318  -16.0510 C   0  0  0  0  0  0  0  0  0  0  0  0
   -8.8532    3.5719  -17.3660 C   0  0  0  0  0  0  0  0  0  0  0  0
   -7.7902    3.9083  -18.1722 C   0  0  0  0  0  0  0  0  0  0  0  0
   -7.5808    3.5378  -19.4866 N   0  0  0  0  0  0  0  0  0  0  0  0
   -6.4128    4.1475  -19.9509 C   0  0  0  0  0  0  0  0  0  0  0  0
   -5.9736    4.0508  -21.0888 O   0  0  0  0  0  0  0  0  0  0  0  0
   -5.8650    4.8944  -18.8616 N   0  0  0  0  0  0  0  0  0  0  0  0
   -5.0876    6.0707  -19.1779 C   0  0  0  0  0  0  0  0  0  0  0  0
   -4.1369    6.7181  -18.1518 C   0  0  0  0  0  0  0  0  0  0  0  0
   -2.9416    6.0146  -17.6677 N   0  0  0  0  0  0  0  0  0  0  0  0
   -2.3009    5.1692  -18.6700 C   0  0  0  0  0  0  0  0  0  0  0  0
   -3.1768    5.2918  -16.4279 C   0  0  0  0  0  0  0  0  0  0  0  0
   -6.7404    4.7300  -17.7661 C   0  0  0  0  0  0  0  0  0  0  0  0
   -6.7113    5.2093  -16.4799 C   0  0  0  0  0  0  0  0  0  0  0  0
   -8.5683    3.4885  -10.9096 C   0  0  0  0  0  0  0  0  0  0  0  0
   -8.5882    3.7267   -9.5401 C   0  0  0  0  0  0  0  0  0  0  0  0
   -8.8877    2.8288   -8.3644 C   0  0  0  0  0  0  0  0  0  0  0  0
  1  2  1  0
  2  3  1  0
  2  4  1  0
  4  5  1  0
  5  6  1  0
  6  7  1  0
  7  8  1  0
  8  9  2  0
  9 10  1  0
 10 11  2  0
 11 12  1  0
 12 13  1  0
 13 14  2  0
 13 15  1  0
 15 16  2  0
 16 17  1  0
 17 18  2  0
 18 19  1  0
 19 20  1  0
 20 21  2  0
 20 22  1  0
 22 23  1  0
 23 24  1  0
 24 25  1  0
 25 26  1  0
 25 27  1  0
 22 28  1  0
 28 29  2  0
 11 30  1  0
 30 31  2  0
 31 32  1  0
 32  6  1  0
 31  8  1  0
 29 15  1  0
 28 18  1  0
M  END
>  <name>  (134) 
P104109

>  <alias>  (134) 
None

>  <smina_score_min>  (134) 
-8.117

>  <exports>  (134) 
['/opt/xchem-fragalysis-2/maxwin/BulkDock/OUTPUTS/openbind_xx01zvns2b_c2_elabs_1LOUTNY.sdf', '/opt/xchem-fragalysis-2/maxwin/BulkDock/OUTPUTS/openbind_xx01zvns2b_c2_elabs_1LSYIIV.sdf']

>  <tags>  (134) 
syndirella_placed,openbind_xx01zvns2b_c2_elabs,openbind_xx01zvns2b_c2_elabs_scored_6.2plus,syndirella_product,openbind_xx01zvns2b_c2_elabs_scored,openbind_xx01zvns2b_c2_elabs_scored_top80percent,BulkDock Fragalysis export

>  <subsites>  (134) 
1 - Z4590/B/203/1

>  <smiles>  (134) 
CC(C)CCN1Cc2ccc(NC(=O)c3ccc4[nH]c(=O)n(CCN(C)C)c4c3)cc2C1

>  <HIPPO Pose ID>  (134) 
104109

>  <energy_score>  (134) 
-63.926225

>  <inchikey>  (134) 
UUPQHHWEVKQCQK-UHFFFAOYSA-N

>  <gnina_score_min>  (134) 
6.311

>  <gnina_score>  (134) 
6.266

>  <ref_mols>  (134) 
Z4245a

>  <HIPPO Compound ID>  (134) 
164125

>  <distance_score>  (134) 
0.848436

>  <rmsd(smina/fragmenstein)>  (134) 
0.497

>  <ref_pdb>  (134) 
Z4245a

>  <inspiration_score>  (134) 
None

$$$$
P104112
     RDKit          3D

 32 35  0  0  0  0  0  0  0  0999 V2000
  -11.4363    2.0086   -5.3951 C   0  0  0  0  0  0  0  0  0  0  0  0
  -11.0202    3.3631   -5.4349 O   0  0  0  0  0  0  0  0  0  0  0  0
   -9.6503    3.5087   -5.0682 C   0  0  0  0  0  0  0  0  0  0  0  0
   -8.7031    2.7566   -6.0052 C   0  0  0  0  0  0  0  0  0  0  0  0
   -8.6957    3.3113   -7.3323 N   0  0  0  0  0  0  0  0  0  0  0  0
   -8.9394    2.5144   -8.5313 C   0  0  0  0  0  0  0  0  0  0  0  0
   -8.5806    3.4801   -9.6148 C   0  0  0  0  0  0  0  0  0  0  0  0
   -8.6067    3.3425  -10.9937 C   0  0  0  0  0  0  0  0  0  0  0  0
   -8.1911    4.4364  -11.7682 C   0  0  0  0  0  0  0  0  0  0  0  0
   -8.1557    4.3356  -13.1554 N   0  0  0  0  0  0  0  0  0  0  0  0
   -7.6963    5.3553  -14.2262 C   0  0  0  0  0  0  0  0  0  0  0  0
   -7.3490    6.4657  -14.1151 O   0  0  0  0  0  0  0  0  0  0  0  0
   -7.7206    4.7960  -15.5988 C   0  0  0  0  0  0  0  0  0  0  0  0
   -8.8328    4.0701  -16.0765 C   0  0  0  0  0  0  0  0  0  0  0  0
   -8.8813    3.6376  -17.4031 C   0  0  0  0  0  0  0  0  0  0  0  0
   -7.8011    3.9442  -18.1941 C   0  0  0  0  0  0  0  0  0  0  0  0
   -7.5844    3.6202  -19.5244 N   0  0  0  0  0  0  0  0  0  0  0  0
   -6.3706    4.1891  -19.9399 C   0  0  0  0  0  0  0  0  0  0  0  0
   -5.8792    4.1026  -21.0548 O   0  0  0  0  0  0  0  0  0  0  0  0
   -5.8405    4.8644  -18.8199 N   0  0  0  0  0  0  0  0  0  0  0  0
   -4.6900    5.7407  -18.8509 C   0  0  0  0  0  0  0  0  0  0  0  0
   -3.4051    5.1883  -18.2525 C   0  0  0  0  0  0  0  0  0  0  0  0
   -2.9527    4.1011  -18.9053 F   0  0  0  0  0  0  0  0  0  0  0  0
   -2.4312    6.1309  -18.3124 F   0  0  0  0  0  0  0  0  0  0  0  0
   -3.5528    4.8653  -16.9476 F   0  0  0  0  0  0  0  0  0  0  0  0
   -6.7125    4.6853  -17.7385 C   0  0  0  0  0  0  0  0  0  0  0  0
   -6.6449    5.1249  -16.4400 C   0  0  0  0  0  0  0  0  0  0  0  0
   -7.7814    5.6395  -11.1587 C   0  0  0  0  0  0  0  0  0  0  0  0
   -7.7553    5.7726   -9.7769 C   0  0  0  0  0  0  0  0  0  0  0  0
   -8.1478    4.6788   -9.0441 C   0  0  0  0  0  0  0  0  0  0  0  0
   -8.1609    4.5481   -7.5945 C   0  0  0  0  0  0  0  0  0  0  0  0
   -7.7399    5.3781   -6.8097 O   0  0  0  0  0  0  0  0  0  0  0  0
  1  2  1  0
  2  3  1  0
  3  4  1  0
  4  5  1  0
  5  6  1  0
  6  7  1  0
  7  8  2  0
  8  9  1  0
  9 10  1  0
 10 11  1  0
 11 12  2  0
 11 13  1  0
 13 14  2  0
 14 15  1  0
 15 16  2  0
 16 17  1  0
 17 18  1  0
 18 19  2  0
 18 20  1  0
 20 21  1  0
 21 22  1  0
 22 23  1  0
 22 24  1  0
 22 25  1  0
 20 26  1  0
 26 27  2  0
  9 28  2  0
 28 29  1  0
 29 30  2  0
 30 31  1  0
 31 32  2  0
 31  5  1  0
 30  7  1  0
 27 13  1  0
 26 16  1  0
M  END
>  <name>  (135) 
P104112

>  <alias>  (135) 
None

>  <smina_score_min>  (135) 
-8.16

>  <exports>  (135) 
['/opt/xchem-fragalysis-2/maxwin/BulkDock/OUTPUTS/openbind_xx01zvns2b_c2_elabs_1LOUTNY.sdf', '/opt/xchem-fragalysis-2/maxwin/BulkDock/OUTPUTS/openbind_xx01zvns2b_c2_elabs_1LSYIIV.sdf']

>  <tags>  (135) 
syndirella_placed,openbind_xx01zvns2b_c2_elabs,openbind_xx01zvns2b_c2_elabs_scored_6.2plus,syndirella_product,openbind_xx01zvns2b_c2_elabs_scored,openbind_xx01zvns2b_c2_elabs_scored_top80percent,BulkDock Fragalysis export

>  <subsites>  (135) 
1 - Z4590/B/203/1

>  <smiles>  (135) 
COCCN1Cc2cc(NC(=O)c3ccc4[nH]c(=O)n(CC(F)(F)F)c4c3)ccc2C1=O

>  <HIPPO Pose ID>  (135) 
104112

>  <energy_score>  (135) 
-18.168629

>  <inchikey>  (135) 
CULGUBTZZNQZAH-UHFFFAOYSA-N

>  <gnina_score_min>  (135) 
6.217

>  <gnina_score>  (135) 
6.194

>  <ref_mols>  (135) 
Z4245a

>  <HIPPO Compound ID>  (135) 
164127

>  <distance_score>  (135) 
0.726162

>  <rmsd(smina/fragmenstein)>  (135) 
0.806

>  <ref_pdb>  (135) 
Z4245a

>  <inspiration_score>  (135) 
None

$$$$
P104127
     RDKit          3D

 32 36  0  0  0  0  0  0  0  0999 V2000
   -6.9224    6.4264  -13.8286 O   0  0  0  0  0  0  0  0  0  0  0  0
   -7.2925    5.3210  -13.9223 C   0  0  0  0  0  0  0  0  0  0  0  0
   -7.8138    4.3403  -12.8399 N   0  0  0  0  0  0  0  0  0  0  0  0
   -8.0678    4.5408  -11.4825 C   0  0  0  0  0  0  0  0  0  0  0  0
   -7.9587    5.8540  -10.9817 C   0  0  0  0  0  0  0  0  0  0  0  0
   -8.1964    6.1374   -9.6470 C   0  0  0  0  0  0  0  0  0  0  0  0
   -8.5031    5.0723   -8.8365 C   0  0  0  0  0  0  0  0  0  0  0  0
   -8.5950    3.7502   -9.2805 C   0  0  0  0  0  0  0  0  0  0  0  0
   -8.4127    3.4716  -10.6322 C   0  0  0  0  0  0  0  0  0  0  0  0
   -8.8581    2.8599   -8.0965 C   0  0  0  0  0  0  0  0  0  0  0  0
   -8.7606    3.8140   -6.9814 N   0  0  0  0  0  0  0  0  0  0  0  0
   -8.6139    3.4778   -5.5731 C   0  0  2  0  0  0  0  0  0  0  0  0
   -9.8682    3.8077   -4.7610 C   0  0  0  0  0  0  0  0  0  0  0  0
   -9.5467    3.9685   -3.2827 C   0  0  2  0  0  0  0  0  0  0  0  0
  -10.6540    4.3314   -2.5914 F   0  0  0  0  0  0  0  0  0  0  0  0
   -8.5097    5.0499   -3.0967 C   0  0  0  0  0  0  0  0  0  0  0  0
   -7.2956    4.6956   -3.7696 N   0  0  0  0  0  0  0  0  0  0  0  0
   -7.3091    4.1641   -5.0296 C   0  0  0  0  0  0  0  0  0  0  0  0
   -6.2261    4.1837   -5.6200 O   0  0  0  0  0  0  0  0  0  0  0  0
   -8.7044    5.1203   -7.3967 C   0  0  0  0  0  0  0  0  0  0  0  0
   -8.7579    6.1303   -6.7189 O   0  0  0  0  0  0  0  0  0  0  0  0
   -7.3688    4.7773  -15.2916 C   0  0  0  0  0  0  0  0  0  0  0  0
   -8.6223    4.3814  -15.7969 C   0  0  0  0  0  0  0  0  0  0  0  0
   -8.7727    4.1411  -17.1612 C   0  0  0  0  0  0  0  0  0  0  0  0
  -10.3219    3.9499  -17.8376 Cl  0  0  0  0  0  0  0  0  0  0  0  0
   -7.6611    4.2304  -17.9627 C   0  0  0  0  0  0  0  0  0  0  0  0
   -7.5154    4.0288  -19.3308 N   0  0  0  0  0  0  0  0  0  0  0  0
   -6.2034    4.3404  -19.6982 C   0  0  0  0  0  0  0  0  0  0  0  0
   -5.7086    4.2749  -20.8109 O   0  0  0  0  0  0  0  0  0  0  0  0
   -5.5389    4.7193  -18.5175 N   0  0  0  0  0  0  0  0  0  0  0  0
   -6.4328    4.6344  -17.4559 C   0  0  0  0  0  0  0  0  0  0  0  0
   -6.2510    4.9286  -16.1271 C   0  0  0  0  0  0  0  0  0  0  0  0
  1  2  2  0
  2  3  1  0
  3  4  1  0
  4  5  2  0
  5  6  1  0
  6  7  2  0
  7  8  1  0
  8  9  2  0
  8 10  1  0
 10 11  1  0
 12 11  1  6
 12 13  1  0
 13 14  1  0
 14 15  1  1
 14 16  1  0
 16 17  1  0
 17 18  1  0
 18 19  2  0
 11 20  1  0
 20 21  2  0
  2 22  1  0
 22 23  2  0
 23 24  1  0
 24 25  1  0
 24 26  2  0
 26 27  1  0
 27 28  1  0
 28 29  2  0
 28 30  1  0
 30 31  1  0
 31 32  2  0
  9  4  1  0
 18 12  1  0
 32 22  1  0
 20  7  1  0
 31 26  1  0
M  END
>  <name>  (136) 
P104127

>  <alias>  (136) 
None

>  <smina_score_min>  (136) 
-8.95

>  <exports>  (136) 
['/opt/xchem-fragalysis-2/maxwin/BulkDock/OUTPUTS/openbind_xx01zvns2b_c2_elabs_1LOUTNY.sdf', '/opt/xchem-fragalysis-2/maxwin/BulkDock/OUTPUTS/openbind_xx01zvns2b_c2_elabs_1LSYIIV.sdf']

>  <tags>  (136) 
syndirella_placed,openbind_xx01zvns2b_c2_elabs,openbind_xx01zvns2b_c2_elabs_scored_6.2plus,syndirella_product,openbind_xx01zvns2b_c2_elabs_scored,openbind_xx01zvns2b_c2_elabs_scored_top80percent,BulkDock Fragalysis export

>  <subsites>  (136) 
1 - Z4590/B/203/1

>  <smiles>  (136) 
O=C(Nc1ccc2c(c1)CN([C@@H]1C[C@H](F)CNC1=O)C2=O)c1cc(Cl)c2[nH]c(=O)[nH]c2c1

>  <HIPPO Pose ID>  (136) 
104127

>  <energy_score>  (136) 
-19.374021

>  <inchikey>  (136) 
JYJWNJRIKCXAHE-MEDUHNTESA-N

>  <gnina_score_min>  (136) 
6.278

>  <gnina_score>  (136) 
6.251

>  <ref_mols>  (136) 
Z4245a

>  <HIPPO Compound ID>  (136) 
164135

>  <distance_score>  (136) 
0.804986

>  <rmsd(smina/fragmenstein)>  (136) 
0.338

>  <ref_pdb>  (136) 
Z4245a

>  <inspiration_score>  (136) 
None

$$$$
P104131
     RDKit          3D

 32 36  0  0  0  0  0  0  0  0999 V2000
   -8.3438    4.3164   -2.8149 O   0  0  0  0  0  0  0  0  0  0  0  0
   -8.7838    3.8408   -3.8504 C   0  0  0  0  0  0  0  0  0  0  0  0
   -7.9586    3.3620   -5.0005 C   0  0  0  0  0  0  0  0  0  0  0  0
   -8.9789    2.7841   -5.9867 C   0  0  2  0  0  0  0  0  0  0  0  0
   -8.8707    3.3304   -7.3149 N   0  0  0  0  0  0  0  0  0  0  0  0
   -8.6776    4.6523   -7.5597 C   0  0  0  0  0  0  0  0  0  0  0  0
   -8.6913    5.5932   -6.7875 O   0  0  0  0  0  0  0  0  0  0  0  0
   -8.4602    4.7690   -8.9843 C   0  0  0  0  0  0  0  0  0  0  0  0
   -8.0579    5.8723   -9.6953 C   0  0  0  0  0  0  0  0  0  0  0  0
   -7.8582    5.6859  -11.0560 C   0  0  0  0  0  0  0  0  0  0  0  0
   -8.0899    4.4330  -11.6658 C   0  0  0  0  0  0  0  0  0  0  0  0
   -7.8630    4.3058  -13.0293 N   0  0  0  0  0  0  0  0  0  0  0  0
   -7.2007    5.2800  -14.0332 C   0  0  0  0  0  0  0  0  0  0  0  0
   -6.6741    6.3076  -13.8559 O   0  0  0  0  0  0  0  0  0  0  0  0
   -7.3356    4.8141  -15.4265 C   0  0  0  0  0  0  0  0  0  0  0  0
   -8.6059    4.4271  -15.8969 C   0  0  0  0  0  0  0  0  0  0  0  0
   -8.7896    4.1544  -17.2479 C   0  0  0  0  0  0  0  0  0  0  0  0
  -10.3583    3.9620  -17.8717 Cl  0  0  0  0  0  0  0  0  0  0  0  0
   -7.6936    4.2088  -18.0718 C   0  0  0  0  0  0  0  0  0  0  0  0
   -7.5726    3.9482  -19.4313 N   0  0  0  0  0  0  0  0  0  0  0  0
   -6.2690    4.2500  -19.8355 C   0  0  0  0  0  0  0  0  0  0  0  0
   -5.7963    4.1444  -20.9547 O   0  0  0  0  0  0  0  0  0  0  0  0
   -5.5812    4.6719  -18.6835 N   0  0  0  0  0  0  0  0  0  0  0  0
   -6.4533    4.6246  -17.6029 C   0  0  0  0  0  0  0  0  0  0  0  0
   -6.2375    4.9463  -16.2868 C   0  0  0  0  0  0  0  0  0  0  0  0
   -8.5380    3.3343  -10.9199 C   0  0  0  0  0  0  0  0  0  0  0  0
   -8.6926    3.5325   -9.5617 C   0  0  0  0  0  0  0  0  0  0  0  0
   -9.0449    2.6180   -8.4722 C   0  0  0  0  0  0  0  0  0  0  0  0
   -9.4249    1.4773   -8.6262 O   0  0  0  0  0  0  0  0  0  0  0  0
  -10.3057    3.1438   -5.3666 C   0  0  0  0  0  0  0  0  0  0  0  0
  -11.4067    3.0491   -5.8780 O   0  0  0  0  0  0  0  0  0  0  0  0
  -10.0913    3.6752   -4.1380 N   0  0  0  0  0  0  0  0  0  0  0  0
  1  2  2  0
  2  3  1  0
  3  4  1  0
  4  5  1  6
  5  6  1  0
  6  7  2  0
  6  8  1  0
  8  9  2  0
  9 10  1  0
 10 11  2  0
 11 12  1  0
 12 13  1  0
 13 14  2  0
 13 15  1  0
 15 16  2  0
 16 17  1  0
 17 18  1  0
 17 19  2  0
 19 20  1  0
 20 21  1  0
 21 22  2  0
 21 23  1  0
 23 24  1  0
 24 25  2  0
 11 26  1  0
 26 27  2  0
 27 28  1  0
 28 29  2  0
  4 30  1  0
 30 31  2  0
 30 32  1  0
 32  2  1  0
 28  5  1  0
 27  8  1  0
 25 15  1  0
 24 19  1  0
M  END
>  <name>  (137) 
P104131

>  <alias>  (137) 
None

>  <smina_score_min>  (137) 
-9.489

>  <exports>  (137) 
['/opt/xchem-fragalysis-2/maxwin/BulkDock/OUTPUTS/openbind_xx01zvns2b_c2_elabs_1LOUTNY.sdf', '/opt/xchem-fragalysis-2/maxwin/BulkDock/OUTPUTS/openbind_xx01zvns2b_c2_elabs_1LSYIIV.sdf']

>  <tags>  (137) 
syndirella_placed,openbind_xx01zvns2b_c2_elabs,openbind_xx01zvns2b_c2_elabs_scored_6.2plus,syndirella_product,openbind_xx01zvns2b_c2_elabs_scored,openbind_xx01zvns2b_c2_elabs_scored_top80percent,BulkDock Fragalysis export

>  <subsites>  (137) 
1 - Z4590/B/203/1

>  <smiles>  (137) 
O=C1C[C@H](N2C(=O)c3ccc(NC(=O)c4cc(Cl)c5[nH]c(=O)[nH]c5c4)cc3C2=O)C(=O)N1

>  <HIPPO Pose ID>  (137) 
104131

>  <energy_score>  (137) 
-39.474627

>  <inchikey>  (137) 
UKABONTVOIZUKW-ZDUSSCGKSA-N

>  <gnina_score_min>  (137) 
6.222

>  <gnina_score>  (137) 
6.161

>  <ref_mols>  (137) 
Z4245a

>  <HIPPO Compound ID>  (137) 
164136

>  <distance_score>  (137) 
0.670295

>  <rmsd(smina/fragmenstein)>  (137) 
0.494

>  <ref_pdb>  (137) 
Z4245a

>  <inspiration_score>  (137) 
None

$$$$
P104149
     RDKit          3D

 32 36  0  0  0  0  0  0  0  0999 V2000
  -10.1805    4.6382   -2.7050 O   0  0  0  0  0  0  0  0  0  0  0  0
   -9.8059    3.9545   -3.6548 C   0  0  0  0  0  0  0  0  0  0  0  0
  -10.7117    3.5302   -4.7787 C   0  0  0  0  0  0  0  0  0  0  0  0
  -10.1922    2.3882   -5.6074 C   0  0  0  0  0  0  0  0  0  0  0  0
   -8.7584    2.6452   -6.0527 C   0  0  1  0  0  0  0  0  0  0  0  0
   -8.7523    3.3523   -7.3215 N   0  0  0  0  0  0  0  0  0  0  0  0
   -8.2408    4.6902   -7.4871 C   0  0  0  0  0  0  0  0  0  0  0  0
   -8.2066    4.8336   -8.9603 C   0  0  0  0  0  0  0  0  0  0  0  0
   -7.7686    5.9131   -9.6907 C   0  0  0  0  0  0  0  0  0  0  0  0
   -7.7099    5.7663  -11.0706 C   0  0  0  0  0  0  0  0  0  0  0  0
   -8.0934    4.5641  -11.6963 C   0  0  0  0  0  0  0  0  0  0  0  0
   -7.9686    4.4574  -13.0738 N   0  0  0  0  0  0  0  0  0  0  0  0
   -7.2309    5.3625  -14.0891 C   0  0  0  0  0  0  0  0  0  0  0  0
   -6.6784    6.3802  -13.9344 O   0  0  0  0  0  0  0  0  0  0  0  0
   -7.3593    4.8578  -15.4696 C   0  0  0  0  0  0  0  0  0  0  0  0
   -8.6281    4.4610  -15.9341 C   0  0  0  0  0  0  0  0  0  0  0  0
   -8.8111    4.1582  -17.2775 C   0  0  0  0  0  0  0  0  0  0  0  0
  -10.3831    3.9666  -17.8913 Cl  0  0  0  0  0  0  0  0  0  0  0  0
   -7.7151    4.1946  -18.1013 C   0  0  0  0  0  0  0  0  0  0  0  0
   -7.5945    3.9120  -19.4565 N   0  0  0  0  0  0  0  0  0  0  0  0
   -6.2931    4.2155  -19.8667 C   0  0  0  0  0  0  0  0  0  0  0  0
   -5.8233    4.1013  -20.9863 O   0  0  0  0  0  0  0  0  0  0  0  0
   -5.6042    4.6533  -18.7215 N   0  0  0  0  0  0  0  0  0  0  0  0
   -6.4749    4.6196  -17.6395 C   0  0  0  0  0  0  0  0  0  0  0  0
   -6.2592    4.9669  -16.3300 C   0  0  0  0  0  0  0  0  0  0  0  0
   -8.5854    3.4897  -10.9528 C   0  0  0  0  0  0  0  0  0  0  0  0
   -8.6203    3.6557   -9.5829 C   0  0  0  0  0  0  0  0  0  0  0  0
   -9.0087    2.7142   -8.5293 C   0  0  0  0  0  0  0  0  0  0  0  0
   -9.4771    1.6106   -8.7138 O   0  0  0  0  0  0  0  0  0  0  0  0
   -7.8959    3.3435   -4.9589 C   0  0  0  0  0  0  0  0  0  0  0  0
   -6.7249    3.7149   -5.0950 O   0  0  0  0  0  0  0  0  0  0  0  0
   -8.4940    3.6519   -3.7756 N   0  0  0  0  0  0  0  0  0  0  0  0
  1  2  2  0
  2  3  1  0
  3  4  1  0
  4  5  1  0
  5  6  1  6
  6  7  1  0
  7  8  1  0
  8  9  2  0
  9 10  1  0
 10 11  2  0
 11 12  1  0
 12 13  1  0
 13 14  2  0
 13 15  1  0
 15 16  2  0
 16 17  1  0
 17 18  1  0
 17 19  2  0
 19 20  1  0
 20 21  1  0
 21 22  2  0
 21 23  1  0
 23 24  1  0
 24 25  2  0
 11 26  1  0
 26 27  2  0
 27 28  1  0
 28 29  2  0
  5 30  1  0
 30 31  2  0
 30 32  1  0
 32  2  1  0
 28  6  1  0
 27  8  1  0
 25 15  1  0
 24 19  1  0
M  END
>  <name>  (138) 
P104149

>  <alias>  (138) 
None

>  <smina_score_min>  (138) 
-9.106

>  <exports>  (138) 
['/opt/xchem-fragalysis-2/maxwin/BulkDock/OUTPUTS/openbind_xx01zvns2b_c2_elabs_1LOUTNY.sdf', '/opt/xchem-fragalysis-2/maxwin/BulkDock/OUTPUTS/openbind_xx01zvns2b_c2_elabs_1LSYIIV.sdf']

>  <tags>  (138) 
syndirella_placed,openbind_xx01zvns2b_c2_elabs,openbind_xx01zvns2b_c2_elabs_scored_6.2plus,syndirella_product,openbind_xx01zvns2b_c2_elabs_scored,openbind_xx01zvns2b_c2_elabs_scored_top80percent,BulkDock Fragalysis export

>  <subsites>  (138) 
1 - Z4590/B/203/1

>  <smiles>  (138) 
O=C1CC[C@@H](N2Cc3ccc(NC(=O)c4cc(Cl)c5[nH]c(=O)[nH]c5c4)cc3C2=O)C(=O)N1

>  <HIPPO Pose ID>  (138) 
104149

>  <energy_score>  (138) 
-37.716198

>  <inchikey>  (138) 
MHCNQTSKYMMIAS-OAHLLOKOSA-N

>  <gnina_score_min>  (138) 
6.224

>  <gnina_score>  (138) 
6.25

>  <ref_mols>  (138) 
Z4245a

>  <HIPPO Compound ID>  (138) 
164148

>  <distance_score>  (138) 
0.742317

>  <rmsd(smina/fragmenstein)>  (138) 
1.19

>  <ref_pdb>  (138) 
Z4245a

>  <inspiration_score>  (138) 
None

$$$$
P104171
     RDKit          3D

 32 36  0  0  0  0  0  0  0  0999 V2000
   -7.0969    6.3784  -14.0654 O   0  0  0  0  0  0  0  0  0  0  0  0
   -7.5114    5.2926  -14.1888 C   0  0  0  0  0  0  0  0  0  0  0  0
   -8.0084    4.2814  -13.1268 N   0  0  0  0  0  0  0  0  0  0  0  0
   -8.1811    4.4249  -11.7537 C   0  0  0  0  0  0  0  0  0  0  0  0
   -8.0119    5.7004  -11.1796 C   0  0  0  0  0  0  0  0  0  0  0  0
   -8.2016    5.9033   -9.8210 C   0  0  0  0  0  0  0  0  0  0  0  0
   -8.5360    4.7992   -9.0730 C   0  0  0  0  0  0  0  0  0  0  0  0
   -8.6819    3.5154   -9.5987 C   0  0  0  0  0  0  0  0  0  0  0  0
   -8.5258    3.3154  -10.9620 C   0  0  0  0  0  0  0  0  0  0  0  0
   -8.9953    2.5584   -8.4892 C   0  0  0  0  0  0  0  0  0  0  0  0
   -8.9430    3.4366   -7.3174 N   0  0  0  0  0  0  0  0  0  0  0  0
   -8.9096    2.9346   -5.9547 C   0  0  1  0  0  0  0  0  0  0  0  0
   -7.7274    3.5243   -5.1709 C   0  0  0  0  0  0  0  0  0  0  0  0
   -8.0577    4.5968   -4.1537 C   0  0  2  0  0  0  0  0  0  0  0  0
   -6.9609    4.7712   -3.3589 F   0  0  0  0  0  0  0  0  0  0  0  0
   -9.2151    4.1419   -3.2985 C   0  0  0  0  0  0  0  0  0  0  0  0
  -10.3499    3.7858   -4.1037 N   0  0  0  0  0  0  0  0  0  0  0  0
  -10.2759    3.0898   -5.2768 C   0  0  0  0  0  0  0  0  0  0  0  0
  -11.3221    2.6607   -5.7569 O   0  0  0  0  0  0  0  0  0  0  0  0
   -8.7675    4.7572   -7.6389 C   0  0  0  0  0  0  0  0  0  0  0  0
   -8.7574    5.7310   -6.9101 O   0  0  0  0  0  0  0  0  0  0  0  0
   -7.5928    4.7574  -15.5656 C   0  0  0  0  0  0  0  0  0  0  0  0
   -8.7707    4.1306  -16.0210 C   0  0  0  0  0  0  0  0  0  0  0  0
   -8.8779    3.7548  -17.3552 C   0  0  0  0  0  0  0  0  0  0  0  0
   -9.9933    3.1898  -17.8189 F   0  0  0  0  0  0  0  0  0  0  0  0
   -7.8150    3.9902  -18.1860 C   0  0  0  0  0  0  0  0  0  0  0  0
   -7.6453    3.6844  -19.5291 N   0  0  0  0  0  0  0  0  0  0  0  0
   -6.3913    4.1532  -19.9384 C   0  0  0  0  0  0  0  0  0  0  0  0
   -5.8888    4.0485  -21.0450 O   0  0  0  0  0  0  0  0  0  0  0  0
   -5.7901    4.7355  -18.8073 N   0  0  0  0  0  0  0  0  0  0  0  0
   -6.6635    4.6198  -17.7335 C   0  0  0  0  0  0  0  0  0  0  0  0
   -6.5172    5.0219  -16.4303 C   0  0  0  0  0  0  0  0  0  0  0  0
  1  2  2  0
  2  3  1  0
  3  4  1  0
  4  5  2  0
  5  6  1  0
  6  7  2  0
  7  8  1  0
  8  9  2  0
  8 10  1  0
 10 11  1  0
 12 11  1  6
 12 13  1  0
 13 14  1  0
 14 15  1  1
 14 16  1  0
 16 17  1  0
 17 18  1  0
 18 19  2  0
 11 20  1  0
 20 21  2  0
  2 22  1  0
 22 23  2  0
 23 24  1  0
 24 25  1  0
 24 26  2  0
 26 27  1  0
 27 28  1  0
 28 29  2  0
 28 30  1  0
 30 31  1  0
 31 32  2  0
  9  4  1  0
 18 12  1  0
 32 22  1  0
 20  7  1  0
 31 26  1  0
M  END
>  <name>  (139) 
P104171

>  <alias>  (139) 
None

>  <smina_score_min>  (139) 
-9.324

>  <exports>  (139) 
['/opt/xchem-fragalysis-2/maxwin/BulkDock/OUTPUTS/openbind_xx01zvns2b_c2_elabs_1LOUTNY.sdf', '/opt/xchem-fragalysis-2/maxwin/BulkDock/OUTPUTS/openbind_xx01zvns2b_c2_elabs_1LSYIIV.sdf']

>  <tags>  (139) 
syndirella_placed,openbind_xx01zvns2b_c2_elabs,openbind_xx01zvns2b_c2_elabs_scored_6.2plus,syndirella_product,openbind_xx01zvns2b_c2_elabs_scored,openbind_xx01zvns2b_c2_elabs_scored_top80percent,BulkDock Fragalysis export

>  <subsites>  (139) 
1 - Z4590/B/203/1

>  <smiles>  (139) 
O=C(Nc1ccc2c(c1)CN([C@H]1C[C@H](F)CNC1=O)C2=O)c1cc(F)c2[nH]c(=O)[nH]c2c1

>  <HIPPO Pose ID>  (139) 
104171

>  <energy_score>  (139) 
-34.589607

>  <inchikey>  (139) 
UUMOFNNICMYXAI-ZBEGNZNMSA-N

>  <gnina_score_min>  (139) 
6.212

>  <gnina_score>  (139) 
6.218

>  <ref_mols>  (139) 
Z4245a

>  <HIPPO Compound ID>  (139) 
164164

>  <distance_score>  (139) 
0.70266

>  <rmsd(smina/fragmenstein)>  (139) 
0.801

>  <ref_pdb>  (139) 
Z4245a

>  <inspiration_score>  (139) 
None

$$$$
P104289
     RDKit          3D

 28 31  0  0  0  0  0  0  0  0999 V2000
   -9.2151    4.3814   -2.8702 C   0  0  0  0  0  0  0  0  0  0  0  0
   -8.8826    4.0188   -4.3092 C   0  0  0  0  0  0  0  0  0  0  0  0
   -9.9785    3.1687   -4.9656 C   0  0  0  0  0  0  0  0  0  0  0  0
   -9.5138    2.3566   -6.1866 C   0  0  0  0  0  0  0  0  0  0  0  0
   -9.5187    3.1186   -7.4159 N   0  0  0  0  0  0  0  0  0  0  0  0
   -8.6310    4.2812   -7.4385 C   0  0  0  0  0  0  0  0  0  0  0  0
   -8.3918    4.5001   -8.8899 C   0  0  0  0  0  0  0  0  0  0  0  0
   -7.9731    5.6441   -9.5303 C   0  0  0  0  0  0  0  0  0  0  0  0
   -7.8927    5.6054  -10.9168 C   0  0  0  0  0  0  0  0  0  0  0  0
   -8.2096    4.4334  -11.6277 C   0  0  0  0  0  0  0  0  0  0  0  0
   -8.1311    4.4267  -13.0130 N   0  0  0  0  0  0  0  0  0  0  0  0
   -7.6109    5.4993  -13.9925 C   0  0  0  0  0  0  0  0  0  0  0  0
   -7.2378    6.5878  -13.7947 O   0  0  0  0  0  0  0  0  0  0  0  0
   -7.5601    4.9999  -15.3798 C   0  0  0  0  0  0  0  0  0  0  0  0
   -8.6334    4.3263  -15.9591 C   0  0  0  0  0  0  0  0  0  0  0  0
   -8.5496    3.9723  -17.2966 C   0  0  0  0  0  0  0  0  0  0  0  0
   -9.5730    3.3201  -17.8628 F   0  0  0  0  0  0  0  0  0  0  0  0
   -7.4166    4.2831  -18.0493 C   0  0  0  0  0  0  0  0  0  0  0  0
   -6.3304    4.9357  -17.4606 C   0  0  0  0  0  0  0  0  0  0  0  0
   -6.4074    5.2953  -16.1181 C   0  0  0  0  0  0  0  0  0  0  0  0
   -5.0699    5.1480  -18.2437 C   0  0  0  0  0  0  0  0  0  0  0  0
   -5.3647    5.3081  -19.7213 C   0  0  0  0  0  0  0  0  0  0  0  0
   -6.3235    4.2563  -20.2252 C   0  0  0  0  0  0  0  0  0  0  0  0
   -6.2392    3.7990  -21.3630 O   0  0  0  0  0  0  0  0  0  0  0  0
   -7.3458    3.9053  -19.3906 N   0  0  0  0  0  0  0  0  0  0  0  0
   -8.6104    3.2732  -10.9620 C   0  0  0  0  0  0  0  0  0  0  0  0
   -8.7095    3.3318   -9.5867 C   0  0  0  0  0  0  0  0  0  0  0  0
   -9.1784    2.3029   -8.6054 C   0  0  0  0  0  0  0  0  0  0  0  0
  1  2  1  0
  2  3  1  0
  3  4  1  0
  4  5  1  0
  5  6  1  0
  6  7  1  0
  7  8  2  0
  8  9  1  0
  9 10  2  0
 10 11  1  0
 11 12  1  0
 12 13  2  0
 12 14  1  0
 14 15  2  0
 15 16  1  0
 16 17  1  0
 16 18  2  0
 18 19  1  0
 19 20  2  0
 19 21  1  0
 21 22  1  0
 22 23  1  0
 23 24  2  0
 23 25  1  0
 10 26  1  0
 26 27  2  0
 27 28  1  0
 28  5  1  0
 27  7  1  0
 20 14  1  0
 25 18  1  0
M  END
>  <name>  (140) 
P104289

>  <alias>  (140) 
None

>  <smina_score_min>  (140) 
-9.299

>  <exports>  (140) 
['/opt/xchem-fragalysis-2/maxwin/BulkDock/OUTPUTS/openbind_xx01zvns2b_c2_elabs_1LOUTNY.sdf', '/opt/xchem-fragalysis-2/maxwin/BulkDock/OUTPUTS/openbind_xx01zvns2b_c2_elabs_1LSYIIV.sdf']

>  <tags>  (140) 
syndirella_placed,openbind_xx01zvns2b_c2_elabs,openbind_xx01zvns2b_c2_elabs_scored_6.2plus,syndirella_product,openbind_xx01zvns2b_c2_elabs_scored,openbind_xx01zvns2b_c2_elabs_scored_top80percent,BulkDock Fragalysis export

>  <subsites>  (140) 
1 - Z4590/B/203/1

>  <smiles>  (140) 
CCCCN1Cc2ccc(NC(=O)c3cc(F)c4c(c3)CCC(=O)N4)cc2C1

>  <HIPPO Pose ID>  (140) 
104289

>  <energy_score>  (140) 
-41.117681

>  <inchikey>  (140) 
DLVQGOGPUGOLCQ-UHFFFAOYSA-N

>  <gnina_score_min>  (140) 
6.266

>  <gnina_score>  (140) 
6.203

>  <ref_mols>  (140) 
Z4125a

>  <HIPPO Compound ID>  (140) 
164323

>  <distance_score>  (140) 
0.564076

>  <rmsd(smina/fragmenstein)>  (140) 
0.513

>  <ref_pdb>  (140) 
Z4125a

>  <inspiration_score>  (140) 
None

$$$$
P104290
     RDKit          3D

 28 31  0  0  0  0  0  0  0  0999 V2000
   -6.2767    3.7803  -21.3424 O   0  0  0  0  0  0  0  0  0  0  0  0
   -6.3522    4.2426  -20.2060 C   0  0  0  0  0  0  0  0  0  0  0  0
   -5.3855    5.2919  -19.7123 C   0  0  0  0  0  0  0  0  0  0  0  0
   -5.0799    5.1340  -18.2368 C   0  0  0  0  0  0  0  0  0  0  0  0
   -6.3348    4.9264  -17.4433 C   0  0  0  0  0  0  0  0  0  0  0  0
   -6.3994    5.2884  -16.1009 C   0  0  0  0  0  0  0  0  0  0  0  0
   -7.5472    5.0030  -15.3490 C   0  0  0  0  0  0  0  0  0  0  0  0
   -7.5791    5.5233  -13.9672 C   0  0  0  0  0  0  0  0  0  0  0  0
   -7.1668    6.6024  -13.7947 O   0  0  0  0  0  0  0  0  0  0  0  0
   -8.1145    4.4831  -12.9593 N   0  0  0  0  0  0  0  0  0  0  0  0
   -8.1651    4.5145  -11.5716 C   0  0  0  0  0  0  0  0  0  0  0  0
   -7.7491    5.6749  -10.8916 C   0  0  0  0  0  0  0  0  0  0  0  0
   -7.7563    5.7387   -9.5032 C   0  0  0  0  0  0  0  0  0  0  0  0
   -8.2131    4.6347   -8.8234 C   0  0  0  0  0  0  0  0  0  0  0  0
   -8.6556    3.4854   -9.4905 C   0  0  0  0  0  0  0  0  0  0  0  0
   -8.6175    3.3957  -10.8695 C   0  0  0  0  0  0  0  0  0  0  0  0
   -9.1733    2.5157   -8.4726 C   0  0  0  0  0  0  0  0  0  0  0  0
   -9.3726    3.3885   -7.2883 N   0  0  0  0  0  0  0  0  0  0  0  0
   -9.3967    2.6786   -6.0217 C   0  0  0  0  0  0  0  0  0  0  0  0
  -10.7311    1.9804   -5.8171 C   0  0  0  0  0  0  0  0  0  0  0  0
  -10.7150    0.7639   -6.4038 F   0  0  0  0  0  0  0  0  0  0  0  0
  -10.9607    1.8101   -4.4981 F   0  0  0  0  0  0  0  0  0  0  0  0
   -8.3674    4.4428   -7.3561 C   0  0  0  0  0  0  0  0  0  0  0  0
   -8.6270    4.3315  -15.9174 C   0  0  0  0  0  0  0  0  0  0  0  0
   -8.5557    3.9742  -17.2564 C   0  0  0  0  0  0  0  0  0  0  0  0
   -9.5878    3.3276  -17.8133 F   0  0  0  0  0  0  0  0  0  0  0  0
   -7.4286    4.2786  -18.0213 C   0  0  0  0  0  0  0  0  0  0  0  0
   -7.3711    3.8998  -19.3633 N   0  0  0  0  0  0  0  0  0  0  0  0
  1  2  2  0
  2  3  1  0
  3  4  1  0
  4  5  1  0
  5  6  2  0
  6  7  1  0
  7  8  1  0
  8  9  2  0
  8 10  1  0
 10 11  1  0
 11 12  2  0
 12 13  1  0
 13 14  2  0
 14 15  1  0
 15 16  2  0
 15 17  1  0
 17 18  1  0
 18 19  1  0
 19 20  1  0
 20 21  1  0
 20 22  1  0
 18 23  1  0
  7 24  2  0
 24 25  1  0
 25 26  1  0
 25 27  2  0
 27 28  1  0
 28  2  1  0
 27  5  1  0
 16 11  1  0
 23 14  1  0
M  END
>  <name>  (141) 
P104290

>  <alias>  (141) 
None

>  <smina_score_min>  (141) 
-9.655

>  <exports>  (141) 
['/opt/xchem-fragalysis-2/maxwin/BulkDock/OUTPUTS/openbind_xx01zvns2b_c2_elabs_1LOUTNY.sdf', '/opt/xchem-fragalysis-2/maxwin/BulkDock/OUTPUTS/openbind_xx01zvns2b_c2_elabs_1LSYIIV.sdf']

>  <tags>  (141) 
syndirella_placed,openbind_xx01zvns2b_c2_elabs,openbind_xx01zvns2b_c2_elabs_scored_6.2plus,syndirella_product,openbind_xx01zvns2b_c2_elabs_scored,openbind_xx01zvns2b_c2_elabs_scored_top80percent,BulkDock Fragalysis export

>  <subsites>  (141) 
1 - Z4590/B/203/1

>  <smiles>  (141) 
O=C1CCc2cc(C(=O)Nc3ccc4c(c3)CN(CC(F)F)C4)cc(F)c2N1

>  <HIPPO Pose ID>  (141) 
104290

>  <energy_score>  (141) 
-39.351338

>  <inchikey>  (141) 
QFWKAEMJWRCBOV-UHFFFAOYSA-N

>  <gnina_score_min>  (141) 
6.206

>  <gnina_score>  (141) 
6.055

>  <ref_mols>  (141) 
Z4125a

>  <HIPPO Compound ID>  (141) 
164324

>  <distance_score>  (141) 
0.629165

>  <rmsd(smina/fragmenstein)>  (141) 
0.663

>  <ref_pdb>  (141) 
Z4125a

>  <inspiration_score>  (141) 
None

$$$$
P104309
     RDKit          3D

 29 32  0  0  0  0  0  0  0  0999 V2000
   -9.6959    4.8721   -1.8956 C   0  0  0  0  0  0  0  0  0  0  0  0
   -8.9929    5.0421   -3.1183 O   0  0  0  0  0  0  0  0  0  0  0  0
   -8.9718    3.8465   -3.9138 C   0  0  0  0  0  0  0  0  0  0  0  0
  -10.2087    3.7716   -4.8014 C   0  0  0  0  0  0  0  0  0  0  0  0
  -10.1024    2.8298   -6.0156 C   0  0  0  0  0  0  0  0  0  0  0  0
   -8.9984    3.0954   -6.9365 N   0  0  0  0  0  0  0  0  0  0  0  0
   -8.7428    4.5101   -7.2198 C   0  0  0  0  0  0  0  0  0  0  0  0
   -8.4613    4.5935   -8.6757 C   0  0  0  0  0  0  0  0  0  0  0  0
   -8.0888    5.7110   -9.3920 C   0  0  0  0  0  0  0  0  0  0  0  0
   -7.9443    5.5808  -10.7674 C   0  0  0  0  0  0  0  0  0  0  0  0
   -8.1808    4.3533  -11.4105 C   0  0  0  0  0  0  0  0  0  0  0  0
   -8.0085    4.2762  -12.7937 N   0  0  0  0  0  0  0  0  0  0  0  0
   -7.6385    5.3728  -13.8243 C   0  0  0  0  0  0  0  0  0  0  0  0
   -7.3453    6.4939  -13.6661 O   0  0  0  0  0  0  0  0  0  0  0  0
   -7.5890    4.8740  -15.2151 C   0  0  0  0  0  0  0  0  0  0  0  0
   -8.6709    4.2282  -15.8039 C   0  0  0  0  0  0  0  0  0  0  0  0
   -8.6078    3.9229  -17.1582 C   0  0  0  0  0  0  0  0  0  0  0  0
   -9.6452    3.3032  -17.7354 F   0  0  0  0  0  0  0  0  0  0  0  0
   -7.4849    4.2481  -17.9216 C   0  0  0  0  0  0  0  0  0  0  0  0
   -6.3899    4.8789  -17.3282 C   0  0  0  0  0  0  0  0  0  0  0  0
   -6.4487    5.1937  -15.9694 C   0  0  0  0  0  0  0  0  0  0  0  0
   -5.1411    5.1150  -18.1251 C   0  0  0  0  0  0  0  0  0  0  0  0
   -5.4446    5.2842  -19.6022 C   0  0  0  0  0  0  0  0  0  0  0  0
   -6.4108    4.2407  -20.1123 C   0  0  0  0  0  0  0  0  0  0  0  0
   -6.3322    3.7845  -21.2521 O   0  0  0  0  0  0  0  0  0  0  0  0
   -7.4344    3.8989  -19.2737 N   0  0  0  0  0  0  0  0  0  0  0  0
   -8.5624    3.2274  -10.6665 C   0  0  0  0  0  0  0  0  0  0  0  0
   -8.6933    3.3660   -9.2880 C   0  0  0  0  0  0  0  0  0  0  0  0
   -9.1228    2.3766   -8.2404 C   0  0  0  0  0  0  0  0  0  0  0  0
  1  2  1  0
  2  3  1  0
  3  4  1  0
  4  5  1  0
  5  6  1  0
  6  7  1  0
  7  8  1  0
  8  9  2  0
  9 10  1  0
 10 11  2  0
 11 12  1  0
 12 13  1  0
 13 14  2  0
 13 15  1  0
 15 16  2  0
 16 17  1  0
 17 18  1  0
 17 19  2  0
 19 20  1  0
 20 21  2  0
 20 22  1  0
 22 23  1  0
 23 24  1  0
 24 25  2  0
 24 26  1  0
 11 27  1  0
 27 28  2  0
 28 29  1  0
 29  6  1  0
 28  8  1  0
 21 15  1  0
 26 19  1  0
M  END
>  <name>  (142) 
P104309

>  <alias>  (142) 
None

>  <smina_score_min>  (142) 
-8.931

>  <exports>  (142) 
['/opt/xchem-fragalysis-2/maxwin/BulkDock/OUTPUTS/openbind_xx01zvns2b_c2_elabs_1LOUTNY.sdf', '/opt/xchem-fragalysis-2/maxwin/BulkDock/OUTPUTS/openbind_xx01zvns2b_c2_elabs_1LSYIIV.sdf']

>  <tags>  (142) 
syndirella_placed,openbind_xx01zvns2b_c2_elabs,openbind_xx01zvns2b_c2_elabs_scored_6.2plus,syndirella_product,openbind_xx01zvns2b_c2_elabs_scored,openbind_xx01zvns2b_c2_elabs_scored_top80percent,BulkDock Fragalysis export

>  <subsites>  (142) 
1 - Z4590/B/203/1

>  <smiles>  (142) 
COCCCN1Cc2ccc(NC(=O)c3cc(F)c4c(c3)CCC(=O)N4)cc2C1

>  <HIPPO Pose ID>  (142) 
104309

>  <energy_score>  (142) 
-43.856446

>  <inchikey>  (142) 
GJCGVGLYIZDBIA-UHFFFAOYSA-N

>  <gnina_score_min>  (142) 
6.244

>  <gnina_score>  (142) 
6.141

>  <ref_mols>  (142) 
Z4125a

>  <HIPPO Compound ID>  (142) 
164350

>  <distance_score>  (142) 
0.486724

>  <rmsd(smina/fragmenstein)>  (142) 
0.561

>  <ref_pdb>  (142) 
Z4125a

>  <inspiration_score>  (142) 
None

$$$$
P104311
     RDKit          3D

 29 32  0  0  0  0  0  0  0  0999 V2000
   -9.4605    4.8105   -3.9335 C   0  0  0  0  0  0  0  0  0  0  0  0
  -10.3280    3.6901   -3.9804 O   0  0  0  0  0  0  0  0  0  0  0  0
  -10.5950    3.2127   -5.3049 C   0  0  0  0  0  0  0  0  0  0  0  0
   -9.4037    2.5216   -5.9829 C   0  0  0  0  0  0  0  0  0  0  0  0
   -9.0973    3.0892   -7.2746 N   0  0  0  0  0  0  0  0  0  0  0  0
   -9.1242    2.3084   -8.5064 C   0  0  0  0  0  0  0  0  0  0  0  0
   -8.7058    3.3252   -9.5185 C   0  0  0  0  0  0  0  0  0  0  0  0
   -8.6472    3.2544  -10.8992 C   0  0  0  0  0  0  0  0  0  0  0  0
   -8.2641    4.4098  -11.5946 C   0  0  0  0  0  0  0  0  0  0  0  0
   -8.1872    4.3903  -12.9815 N   0  0  0  0  0  0  0  0  0  0  0  0
   -7.6703    5.4568  -13.9729 C   0  0  0  0  0  0  0  0  0  0  0  0
   -7.2996    6.5484  -13.7854 O   0  0  0  0  0  0  0  0  0  0  0  0
   -7.6047    4.9534  -15.3583 C   0  0  0  0  0  0  0  0  0  0  0  0
   -8.6717    4.2828  -15.9494 C   0  0  0  0  0  0  0  0  0  0  0  0
   -8.5801    3.9440  -17.2909 C   0  0  0  0  0  0  0  0  0  0  0  0
   -9.5998    3.2965  -17.8687 F   0  0  0  0  0  0  0  0  0  0  0  0
   -7.4447    4.2641  -18.0363 C   0  0  0  0  0  0  0  0  0  0  0  0
   -6.3632    4.9130  -17.4364 C   0  0  0  0  0  0  0  0  0  0  0  0
   -6.4489    5.2587  -16.0902 C   0  0  0  0  0  0  0  0  0  0  0  0
   -5.0998    5.1371  -18.2120 C   0  0  0  0  0  0  0  0  0  0  0  0
   -5.3855    5.3031  -19.6912 C   0  0  0  0  0  0  0  0  0  0  0  0
   -6.3401    4.2532  -20.2074 C   0  0  0  0  0  0  0  0  0  0  0  0
   -6.2491    3.8020  -21.3473 O   0  0  0  0  0  0  0  0  0  0  0  0
   -7.3673    3.8975  -19.3805 N   0  0  0  0  0  0  0  0  0  0  0  0
   -7.9442    5.5999  -10.9103 C   0  0  0  0  0  0  0  0  0  0  0  0
   -7.9884    5.6610   -9.5256 C   0  0  0  0  0  0  0  0  0  0  0  0
   -8.3671    4.5131   -8.8708 C   0  0  0  0  0  0  0  0  0  0  0  0
   -8.5505    4.3393   -7.4391 C   0  0  0  0  0  0  0  0  0  0  0  0
   -8.2755    5.1872   -6.6114 O   0  0  0  0  0  0  0  0  0  0  0  0
  1  2  1  0
  2  3  1  0
  3  4  1  0
  4  5  1  0
  5  6  1  0
  6  7  1  0
  7  8  2  0
  8  9  1  0
  9 10  1  0
 10 11  1  0
 11 12  2  0
 11 13  1  0
 13 14  2  0
 14 15  1  0
 15 16  1  0
 15 17  2  0
 17 18  1  0
 18 19  2  0
 18 20  1  0
 20 21  1  0
 21 22  1  0
 22 23  2  0
 22 24  1  0
  9 25  2  0
 25 26  1  0
 26 27  2  0
 27 28  1  0
 28 29  2  0
 28  5  1  0
 27  7  1  0
 19 13  1  0
 24 17  1  0
M  END
>  <name>  (143) 
P104311

>  <alias>  (143) 
None

>  <smina_score_min>  (143) 
-9.038

>  <exports>  (143) 
['/opt/xchem-fragalysis-2/maxwin/BulkDock/OUTPUTS/openbind_xx01zvns2b_c2_elabs_1LOUTNY.sdf', '/opt/xchem-fragalysis-2/maxwin/BulkDock/OUTPUTS/openbind_xx01zvns2b_c2_elabs_1LSYIIV.sdf']

>  <tags>  (143) 
syndirella_placed,openbind_xx01zvns2b_c2_elabs,openbind_xx01zvns2b_c2_elabs_scored_6.2plus,syndirella_product,openbind_xx01zvns2b_c2_elabs_scored,openbind_xx01zvns2b_c2_elabs_scored_top80percent,BulkDock Fragalysis export

>  <subsites>  (143) 
1 - Z4590/B/203/1

>  <smiles>  (143) 
COCCN1Cc2cc(NC(=O)c3cc(F)c4c(c3)CCC(=O)N4)ccc2C1=O

>  <HIPPO Pose ID>  (143) 
104311

>  <energy_score>  (143) 
-17.748641

>  <inchikey>  (143) 
PSJONZLUCUJZCM-UHFFFAOYSA-N

>  <gnina_score_min>  (143) 
6.202

>  <gnina_score>  (143) 
6.152

>  <ref_mols>  (143) 
Z4125a

>  <HIPPO Compound ID>  (143) 
164352

>  <distance_score>  (143) 
0.520335

>  <rmsd(smina/fragmenstein)>  (143) 
0.438

>  <ref_pdb>  (143) 
Z4125a

>  <inspiration_score>  (143) 
None

$$$$
P104380
     RDKit          3D

 33 37  0  0  0  0  0  0  0  0999 V2000
  -12.3194    2.1488   -4.6200 O   0  0  0  0  0  0  0  0  0  0  0  0
  -11.4289    2.1856   -5.4590 C   0  0  0  0  0  0  0  0  0  0  0  0
  -10.4238    1.0926   -5.6685 C   0  0  0  0  0  0  0  0  0  0  0  0
   -9.1193    1.4498   -6.4245 C   0  0  0  0  0  0  0  0  0  0  0  0
   -9.0478    2.9318   -6.6288 C   0  0  1  0  0  0  0  0  0  0  0  0
   -8.1069    3.4884   -7.5633 N   0  0  0  0  0  0  0  0  0  0  0  0
   -7.8525    2.8438   -8.8594 C   0  0  0  0  0  0  0  0  0  0  0  0
   -7.9706    3.9778   -9.7943 C   0  0  0  0  0  0  0  0  0  0  0  0
   -7.8671    3.9460  -11.1542 C   0  0  0  0  0  0  0  0  0  0  0  0
   -7.9875    5.1515  -11.8381 C   0  0  0  0  0  0  0  0  0  0  0  0
   -7.7615    5.1223  -13.1946 N   0  0  0  0  0  0  0  0  0  0  0  0
   -7.1146    4.0441  -14.0743 C   0  0  0  0  0  0  0  0  0  0  0  0
   -6.5997    3.0410  -13.7838 O   0  0  0  0  0  0  0  0  0  0  0  0
   -7.2635    4.3758  -15.4830 C   0  0  0  0  0  0  0  0  0  0  0  0
   -8.4604    4.0501  -16.1148 C   0  0  0  0  0  0  0  0  0  0  0  0
   -8.4685    4.0270  -17.4932 C   0  0  0  0  0  0  0  0  0  0  0  0
   -9.5680    3.6091  -18.1316 F   0  0  0  0  0  0  0  0  0  0  0  0
   -7.3140    4.3475  -18.2105 C   0  0  0  0  0  0  0  0  0  0  0  0
   -6.1534    4.7893  -17.5602 C   0  0  0  0  0  0  0  0  0  0  0  0
   -6.1264    4.7899  -16.1723 C   0  0  0  0  0  0  0  0  0  0  0  0
   -4.8969    5.0495  -18.3363 C   0  0  0  0  0  0  0  0  0  0  0  0
   -5.1953    5.3598  -19.7879 C   0  0  0  0  0  0  0  0  0  0  0  0
   -6.1933    4.3886  -20.3662 C   0  0  0  0  0  0  0  0  0  0  0  0
   -6.0923    3.9603  -21.5125 O   0  0  0  0  0  0  0  0  0  0  0  0
   -7.2683    4.0899  -19.5791 N   0  0  0  0  0  0  0  0  0  0  0  0
   -8.2768    6.3521  -11.1753 C   0  0  0  0  0  0  0  0  0  0  0  0
   -8.3525    6.3707   -9.7816 C   0  0  0  0  0  0  0  0  0  0  0  0
   -8.1629    5.1729   -9.1243 C   0  0  0  0  0  0  0  0  0  0  0  0
   -8.2220    4.8757   -7.6992 C   0  0  0  0  0  0  0  0  0  0  0  0
   -8.4787    5.6984   -6.8383 O   0  0  0  0  0  0  0  0  0  0  0  0
  -10.3864    3.0304   -7.2747 C   0  0  0  0  0  0  0  0  0  0  0  0
  -10.5578    2.7618   -8.4612 O   0  0  0  0  0  0  0  0  0  0  0  0
  -11.3919    3.1702   -6.3698 N   0  0  0  0  0  0  0  0  0  0  0  0
  1  2  2  0
  2  3  1  0
  3  4  1  0
  4  5  1  0
  5  6  1  6
  6  7  1  0
  7  8  1  0
  8  9  2  0
  9 10  1  0
 10 11  1  0
 11 12  1  0
 12 13  2  0
 12 14  1  0
 14 15  2  0
 15 16  1  0
 16 17  1  0
 16 18  2  0
 18 19  1  0
 19 20  2  0
 19 21  1  0
 21 22  1  0
 22 23  1  0
 23 24  2  0
 23 25  1  0
 10 26  2  0
 26 27  1  0
 27 28  2  0
 28 29  1  0
 29 30  2  0
  5 31  1  0
 31 32  2  0
 31 33  1  0
 33  2  1  0
 29  6  1  0
 28  8  1  0
 20 14  1  0
 25 18  1  0
M  END
>  <name>  (144) 
P104380

>  <alias>  (144) 
None

>  <smina_score_min>  (144) 
-9.827

>  <exports>  (144) 
['/opt/xchem-fragalysis-2/maxwin/BulkDock/OUTPUTS/openbind_xx01zvns2b_c2_elabs_1LOUTNY.sdf', '/opt/xchem-fragalysis-2/maxwin/BulkDock/OUTPUTS/openbind_xx01zvns2b_c2_elabs_1LSYIIV.sdf']

>  <tags>  (144) 
syndirella_placed,openbind_xx01zvns2b_c2_elabs,openbind_xx01zvns2b_c2_elabs_scored_6.2plus,syndirella_product,openbind_xx01zvns2b_c2_elabs_scored,openbind_xx01zvns2b_c2_elabs_scored_top80percent,BulkDock Fragalysis export

>  <subsites>  (144) 
1 - Z4590/B/203/1

>  <smiles>  (144) 
O=C1CC[C@@H](N2Cc3cc(NC(=O)c4cc(F)c5c(c4)CCC(=O)N5)ccc3C2=O)C(=O)N1

>  <HIPPO Pose ID>  (144) 
104380

>  <energy_score>  (144) 
-7.998046

>  <inchikey>  (144) 
GINCLEYZDBYZRQ-QGZVFWFLSA-N

>  <gnina_score_min>  (144) 
6.203

>  <gnina_score>  (144) 
6.203

>  <ref_mols>  (144) 
Z4125a

>  <HIPPO Compound ID>  (144) 
164442

>  <distance_score>  (144) 
1.147932

>  <rmsd(smina/fragmenstein)>  (144) 
1.152

>  <ref_pdb>  (144) 
Z4125a

>  <inspiration_score>  (144) 
None

$$$$
P104406
     RDKit          3D

 24 27  0  0  0  0  0  0  0  0999 V2000
   -3.4525    5.6997  -17.8694 C   0  0  0  0  0  0  0  0  0  0  0  0
   -4.8581    5.3088  -18.1423 C   0  0  0  0  0  0  0  0  0  0  0  0
   -5.4306    5.0839  -19.3760 C   0  0  0  0  0  0  0  0  0  0  0  0
   -6.7368    4.7177  -19.1875 N   0  0  0  0  0  0  0  0  0  0  0  0
   -7.0259    4.6680  -17.8440 C   0  0  0  0  0  0  0  0  0  0  0  0
   -8.2027    4.3114  -17.1757 C   0  0  0  0  0  0  0  0  0  0  0  0
   -9.5742    3.7511  -18.0405 Cl  0  0  0  0  0  0  0  0  0  0  0  0
   -8.2634    4.4935  -15.7942 C   0  0  0  0  0  0  0  0  0  0  0  0
   -7.1545    5.0045  -15.1184 C   0  0  0  0  0  0  0  0  0  0  0  0
   -7.2498    5.4226  -13.7022 C   0  0  0  0  0  0  0  0  0  0  0  0
   -6.9001    6.4995  -13.4211 O   0  0  0  0  0  0  0  0  0  0  0  0
   -7.8416    4.3038  -12.8246 N   0  0  0  0  0  0  0  0  0  0  0  0
   -8.0335    4.2410  -11.4499 C   0  0  0  0  0  0  0  0  0  0  0  0
   -7.8254    5.3727  -10.6399 C   0  0  0  0  0  0  0  0  0  0  0  0
   -8.0398    5.3200   -9.2611 C   0  0  0  0  0  0  0  0  0  0  0  0
   -8.4712    4.1254   -8.7256 C   0  0  0  0  0  0  0  0  0  0  0  0
   -8.6657    2.9993   -9.5293 C   0  0  0  0  0  0  0  0  0  0  0  0
   -8.4495    3.0339  -10.8917 C   0  0  0  0  0  0  0  0  0  0  0  0
   -9.1262    1.8680   -8.6721 C   0  0  0  0  0  0  0  0  0  0  0  0
   -9.6356    2.5538   -7.4653 N   0  0  0  0  0  0  0  0  0  0  0  0
   -9.5836    1.6991   -6.3071 C   0  0  0  0  0  0  0  0  0  0  0  0
   -8.8229    3.7757   -7.3156 C   0  0  0  0  0  0  0  0  0  0  0  0
   -5.9507    5.2784  -15.7807 C   0  0  0  0  0  0  0  0  0  0  0  0
   -5.8859    5.1076  -17.1725 C   0  0  0  0  0  0  0  0  0  0  0  0
  1  2  1  0
  2  3  2  0
  3  4  1  0
  4  5  1  0
  5  6  2  0
  6  7  1  0
  6  8  1  0
  8  9  2  0
  9 10  1  0
 10 11  2  0
 10 12  1  0
 12 13  1  0
 13 14  2  0
 14 15  1  0
 15 16  2  0
 16 17  1  0
 17 18  2  0
 17 19  1  0
 19 20  1  0
 20 21  1  0
 20 22  1  0
  9 23  1  0
 23 24  2  0
 24  2  1  0
 24  5  1  0
 18 13  1  0
 22 16  1  0
M  END
>  <name>  (145) 
P104406

>  <alias>  (145) 
None

>  <smina_score_min>  (145) 
-9.5

>  <exports>  (145) 
['/opt/xchem-fragalysis-2/maxwin/BulkDock/OUTPUTS/openbind_xx01zvns2b_c2_elabs_1LOUTNY.sdf', '/opt/xchem-fragalysis-2/maxwin/BulkDock/OUTPUTS/openbind_xx01zvns2b_c2_elabs_1LSYIIV.sdf']

>  <tags>  (145) 
syndirella_placed,openbind_xx01zvns2b_c2_elabs,openbind_xx01zvns2b_c2_elabs_scored_6.2plus,syndirella_product,openbind_xx01zvns2b_c2_elabs_scored,openbind_xx01zvns2b_c1_elabs_filtered,openbind_xx01zvns2b_c2_elabs_scored_top80percent,BulkDock Fragalysis export

>  <subsites>  (145) 
1 - Z4590/B/203/1

>  <smiles>  (145) 
Cc1c[nH]c2c(Cl)cc(C(=O)Nc3ccc4c(c3)CN(C)C4)cc12

>  <HIPPO Pose ID>  (145) 
104406

>  <energy_score>  (145) 
-25.12481

>  <inchikey>  (145) 
VDOLBOGBGMUUOY-UHFFFAOYSA-N

>  <gnina_score_min>  (145) 
6.201

>  <gnina_score>  (145) 
6.117

>  <ref_mols>  (145) 
Z4971a

>  <HIPPO Compound ID>  (145) 
164469

>  <distance_score>  (145) 
0.52775

>  <rmsd(smina/fragmenstein)>  (145) 
0.281

>  <ref_pdb>  (145) 
Z4971a

>  <inspiration_score>  (145) 
None

$$$$
P104407
     RDKit          3D

 25 28  0  0  0  0  0  0  0  0999 V2000
   -3.5034    5.6872  -17.7644 C   0  0  0  0  0  0  0  0  0  0  0  0
   -4.9101    5.2995  -18.0389 C   0  0  0  0  0  0  0  0  0  0  0  0
   -5.4832    5.0935  -19.2762 C   0  0  0  0  0  0  0  0  0  0  0  0
   -6.7902    4.7273  -19.0930 N   0  0  0  0  0  0  0  0  0  0  0  0
   -7.0771    4.6537  -17.7490 C   0  0  0  0  0  0  0  0  0  0  0  0
   -8.2538    4.2869  -17.0844 C   0  0  0  0  0  0  0  0  0  0  0  0
   -9.6254    3.7557  -17.9685 Cl  0  0  0  0  0  0  0  0  0  0  0  0
   -8.3142    4.4350  -15.6967 C   0  0  0  0  0  0  0  0  0  0  0  0
   -7.2053    4.9282  -15.0109 C   0  0  0  0  0  0  0  0  0  0  0  0
   -7.3091    5.3501  -13.5962 C   0  0  0  0  0  0  0  0  0  0  0  0
   -7.0816    6.4696  -13.3541 O   0  0  0  0  0  0  0  0  0  0  0  0
   -7.6918    4.1815  -12.6618 N   0  0  0  0  0  0  0  0  0  0  0  0
   -7.9586    4.1662  -11.2927 C   0  0  0  0  0  0  0  0  0  0  0  0
   -7.8150    5.3458  -10.5338 C   0  0  0  0  0  0  0  0  0  0  0  0
   -8.0782    5.3589   -9.1639 C   0  0  0  0  0  0  0  0  0  0  0  0
   -8.4717    4.1712   -8.5871 C   0  0  0  0  0  0  0  0  0  0  0  0
   -8.6132    2.9909   -9.3152 C   0  0  0  0  0  0  0  0  0  0  0  0
   -8.3598    2.9722  -10.6794 C   0  0  0  0  0  0  0  0  0  0  0  0
   -9.0856    1.9011   -8.4109 C   0  0  0  0  0  0  0  0  0  0  0  0
   -9.2499    2.5933   -7.1417 N   0  0  0  0  0  0  0  0  0  0  0  0
  -10.0427    2.0383   -6.0776 C   0  0  0  0  0  0  0  0  0  0  0  0
   -8.9024    3.9267   -7.2067 C   0  0  0  0  0  0  0  0  0  0  0  0
   -8.9881    4.7869   -6.3488 O   0  0  0  0  0  0  0  0  0  0  0  0
   -6.0025    5.2197  -15.6724 C   0  0  0  0  0  0  0  0  0  0  0  0
   -5.9361    5.0782  -17.0695 C   0  0  0  0  0  0  0  0  0  0  0  0
  1  2  1  0
  2  3  2  0
  3  4  1  0
  4  5  1  0
  5  6  2  0
  6  7  1  0
  6  8  1  0
  8  9  2  0
  9 10  1  0
 10 11  2  0
 10 12  1  0
 12 13  1  0
 13 14  2  0
 14 15  1  0
 15 16  2  0
 16 17  1  0
 17 18  2  0
 17 19  1  0
 19 20  1  0
 20 21  1  0
 20 22  1  0
 22 23  2  0
  9 24  1  0
 24 25  2  0
 25  2  1  0
 25  5  1  0
 18 13  1  0
 22 16  1  0
M  END
>  <name>  (146) 
P104407

>  <alias>  (146) 
None

>  <smina_score_min>  (146) 
-10.054

>  <exports>  (146) 
['/opt/xchem-fragalysis-2/maxwin/BulkDock/OUTPUTS/openbind_xx01zvns2b_c2_elabs_1LOUTNY.sdf', '/opt/xchem-fragalysis-2/maxwin/BulkDock/OUTPUTS/openbind_xx01zvns2b_c2_elabs_1LSYIIV.sdf']

>  <tags>  (146) 
syndirella_placed,openbind_xx01zvns2b_c2_elabs,openbind_xx01zvns2b_c2_elabs_scored_6.2plus,syndirella_product,openbind_xx01zvns2b_c2_elabs_scored,openbind_xx01zvns2b_c1_elabs_filtered,openbind_xx01zvns2b_c2_elabs_scored_top80percent,BulkDock Fragalysis export

>  <subsites>  (146) 
1 - Z4590/B/203/1

>  <smiles>  (146) 
Cc1c[nH]c2c(Cl)cc(C(=O)Nc3ccc4c(c3)CN(C)C4=O)cc12

>  <HIPPO Pose ID>  (146) 
104407

>  <energy_score>  (146) 
-19.151436

>  <inchikey>  (146) 
PJTOUAKFIMDBTO-UHFFFAOYSA-N

>  <gnina_score_min>  (146) 
6.29

>  <gnina_score>  (146) 
6.178

>  <ref_mols>  (146) 
Z4971a

>  <HIPPO Compound ID>  (146) 
141757

>  <distance_score>  (146) 
0.458166

>  <rmsd(smina/fragmenstein)>  (146) 
0.325

>  <ref_pdb>  (146) 
Z4971a

>  <inspiration_score>  (146) 
None

$$$$
P104409
     RDKit          3D

 25 28  0  0  0  0  0  0  0  0999 V2000
  -10.6438    1.5738   -5.7935 C   0  0  0  0  0  0  0  0  0  0  0  0
   -9.4164    2.4407   -5.9600 C   0  0  0  0  0  0  0  0  0  0  0  0
   -9.4687    3.1538   -7.2165 N   0  0  0  0  0  0  0  0  0  0  0  0
   -8.5527    4.2961   -7.2345 C   0  0  0  0  0  0  0  0  0  0  0  0
   -8.2795    4.4888   -8.6833 C   0  0  0  0  0  0  0  0  0  0  0  0
   -7.7856    5.6021   -9.3201 C   0  0  0  0  0  0  0  0  0  0  0  0
   -7.6122    5.5246  -10.6961 C   0  0  0  0  0  0  0  0  0  0  0  0
   -7.9186    4.3485  -11.4081 C   0  0  0  0  0  0  0  0  0  0  0  0
   -7.6824    4.3104  -12.7777 N   0  0  0  0  0  0  0  0  0  0  0  0
   -7.2206    5.4186  -13.7458 C   0  0  0  0  0  0  0  0  0  0  0  0
   -6.8913    6.5189  -13.5353 O   0  0  0  0  0  0  0  0  0  0  0  0
   -7.1504    4.9540  -15.1428 C   0  0  0  0  0  0  0  0  0  0  0  0
   -8.2729    4.4597  -15.8030 C   0  0  0  0  0  0  0  0  0  0  0  0
   -8.2260    4.2854  -17.1867 C   0  0  0  0  0  0  0  0  0  0  0  0
   -9.6138    3.7537  -18.0430 Cl  0  0  0  0  0  0  0  0  0  0  0  0
   -7.0520    4.6332  -17.8671 C   0  0  0  0  0  0  0  0  0  0  0  0
   -6.7746    4.6880  -19.2124 N   0  0  0  0  0  0  0  0  0  0  0  0
   -5.4702    5.0549  -19.4134 C   0  0  0  0  0  0  0  0  0  0  0  0
   -4.8819    5.2641  -18.1849 C   0  0  0  0  0  0  0  0  0  0  0  0
   -3.4719    5.6468  -17.9230 C   0  0  0  0  0  0  0  0  0  0  0  0
   -5.8999    5.0562  -17.2071 C   0  0  0  0  0  0  0  0  0  0  0  0
   -5.9482    5.2145  -15.8157 C   0  0  0  0  0  0  0  0  0  0  0  0
   -8.4223    3.2252  -10.7486 C   0  0  0  0  0  0  0  0  0  0  0  0
   -8.6047    3.3202   -9.3797 C   0  0  0  0  0  0  0  0  0  0  0  0
   -9.1380    2.3198   -8.3998 C   0  0  0  0  0  0  0  0  0  0  0  0
  1  2  1  0
  2  3  1  0
  3  4  1  0
  4  5  1  0
  5  6  2  0
  6  7  1  0
  7  8  2  0
  8  9  1  0
  9 10  1  0
 10 11  2  0
 10 12  1  0
 12 13  2  0
 13 14  1  0
 14 15  1  0
 14 16  2  0
 16 17  1  0
 17 18  1  0
 18 19  2  0
 19 20  1  0
 19 21  1  0
 21 22  2  0
  8 23  1  0
 23 24  2  0
 24 25  1  0
 25  3  1  0
 24  5  1  0
 22 12  1  0
 21 16  1  0
M  END
>  <name>  (147) 
P104409

>  <alias>  (147) 
None

>  <smina_score_min>  (147) 
-9.445

>  <exports>  (147) 
['/opt/xchem-fragalysis-2/maxwin/BulkDock/OUTPUTS/openbind_xx01zvns2b_c2_elabs_1LOUTNY.sdf', '/opt/xchem-fragalysis-2/maxwin/BulkDock/OUTPUTS/openbind_xx01zvns2b_c2_elabs_1LSYIIV.sdf']

>  <tags>  (147) 
syndirella_placed,openbind_xx01zvns2b_c2_elabs,openbind_xx01zvns2b_c2_elabs_scored_6.2plus,syndirella_product,openbind_xx01zvns2b_c2_elabs_scored,openbind_xx01zvns2b_c1_elabs_filtered,openbind_xx01zvns2b_c2_elabs_scored_top80percent,BulkDock Fragalysis export

>  <subsites>  (147) 
1 - Z4590/B/203/1

>  <smiles>  (147) 
CCN1Cc2ccc(NC(=O)c3cc(Cl)c4[nH]cc(C)c4c3)cc2C1

>  <HIPPO Pose ID>  (147) 
104409

>  <energy_score>  (147) 
-3.679376

>  <inchikey>  (147) 
PZRZPZBXXUCMMI-UHFFFAOYSA-N

>  <gnina_score_min>  (147) 
6.293

>  <gnina_score>  (147) 
6.193

>  <ref_mols>  (147) 
Z4971a

>  <HIPPO Compound ID>  (147) 
164474

>  <distance_score>  (147) 
0.635715

>  <rmsd(smina/fragmenstein)>  (147) 
0.504

>  <ref_pdb>  (147) 
Z4971a

>  <inspiration_score>  (147) 
None

$$$$
P104410
     RDKit          3D

 26 29  0  0  0  0  0  0  0  0999 V2000
  -10.6747    1.8110   -5.8148 C   0  0  0  0  0  0  0  0  0  0  0  0
   -9.2219    2.1246   -6.0687 C   0  0  0  0  0  0  0  0  0  0  0  0
   -9.0256    2.8069   -7.3094 N   0  0  0  0  0  0  0  0  0  0  0  0
   -8.9649    2.0940   -8.5737 C   0  0  0  0  0  0  0  0  0  0  0  0
   -8.5974    3.1882   -9.5142 C   0  0  0  0  0  0  0  0  0  0  0  0
   -8.4244    3.1558  -10.8836 C   0  0  0  0  0  0  0  0  0  0  0  0
   -8.0524    4.3463  -11.5143 C   0  0  0  0  0  0  0  0  0  0  0  0
   -7.8433    4.3477  -12.8847 N   0  0  0  0  0  0  0  0  0  0  0  0
   -7.3672    5.4719  -13.8226 C   0  0  0  0  0  0  0  0  0  0  0  0
   -7.1487    6.5967  -13.6049 O   0  0  0  0  0  0  0  0  0  0  0  0
   -7.2165    4.9967  -15.2068 C   0  0  0  0  0  0  0  0  0  0  0  0
   -8.3099    4.4758  -15.8945 C   0  0  0  0  0  0  0  0  0  0  0  0
   -8.2189    4.2860  -17.2706 C   0  0  0  0  0  0  0  0  0  0  0  0
   -9.5790    3.7321  -18.1528 Cl  0  0  0  0  0  0  0  0  0  0  0  0
   -7.0287    4.6414  -17.9156 C   0  0  0  0  0  0  0  0  0  0  0  0
   -6.7134    4.6900  -19.2525 N   0  0  0  0  0  0  0  0  0  0  0  0
   -5.4068    5.0649  -19.4177 C   0  0  0  0  0  0  0  0  0  0  0  0
   -4.8566    5.2888  -18.1740 C   0  0  0  0  0  0  0  0  0  0  0  0
   -3.4572    5.6836  -17.8761 C   0  0  0  0  0  0  0  0  0  0  0  0
   -5.9018    5.0848  -17.2242 C   0  0  0  0  0  0  0  0  0  0  0  0
   -5.9949    5.2639  -15.8367 C   0  0  0  0  0  0  0  0  0  0  0  0
   -7.8730    5.5374  -10.7805 C   0  0  0  0  0  0  0  0  0  0  0  0
   -8.0588    5.5653   -9.4042 C   0  0  0  0  0  0  0  0  0  0  0  0
   -8.4155    4.3794   -8.8079 C   0  0  0  0  0  0  0  0  0  0  0  0
   -8.6750    4.1321   -7.3947 C   0  0  0  0  0  0  0  0  0  0  0  0
   -8.5837    4.9677   -6.5147 O   0  0  0  0  0  0  0  0  0  0  0  0
  1  2  1  0
  2  3  1  0
  3  4  1  0
  4  5  1  0
  5  6  2  0
  6  7  1  0
  7  8  1  0
  8  9  1  0
  9 10  2  0
  9 11  1  0
 11 12  2  0
 12 13  1  0
 13 14  1  0
 13 15  2  0
 15 16  1  0
 16 17  1  0
 17 18  2  0
 18 19  1  0
 18 20  1  0
 20 21  2  0
  7 22  2  0
 22 23  1  0
 23 24  2  0
 24 25  1  0
 25 26  2  0
 25  3  1  0
 24  5  1  0
 21 11  1  0
 20 15  1  0
M  END
>  <name>  (148) 
P104410

>  <alias>  (148) 
None

>  <smina_score_min>  (148) 
-9.998

>  <exports>  (148) 
['/opt/xchem-fragalysis-2/maxwin/BulkDock/OUTPUTS/openbind_xx01zvns2b_c2_elabs_1LOUTNY.sdf', '/opt/xchem-fragalysis-2/maxwin/BulkDock/OUTPUTS/openbind_xx01zvns2b_c2_elabs_1LSYIIV.sdf']

>  <tags>  (148) 
syndirella_placed,openbind_xx01zvns2b_c2_elabs,openbind_xx01zvns2b_c2_elabs_scored_6.2plus,syndirella_product,openbind_xx01zvns2b_c2_elabs_scored,openbind_xx01zvns2b_c1_elabs_filtered,openbind_xx01zvns2b_c2_elabs_scored_top80percent,BulkDock Fragalysis export

>  <subsites>  (148) 
1 - Z4590/B/203/1

>  <smiles>  (148) 
CCN1Cc2cc(NC(=O)c3cc(Cl)c4[nH]cc(C)c4c3)ccc2C1=O

>  <HIPPO Pose ID>  (148) 
104410

>  <energy_score>  (148) 
-21.894837

>  <inchikey>  (148) 
XYWHNEFAJWHZHV-UHFFFAOYSA-N

>  <gnina_score_min>  (148) 
6.293

>  <gnina_score>  (148) 
6.281

>  <ref_mols>  (148) 
Z4971a

>  <HIPPO Compound ID>  (148) 
141759

>  <distance_score>  (148) 
0.591965

>  <rmsd(smina/fragmenstein)>  (148) 
0.77

>  <ref_pdb>  (148) 
Z4971a

>  <inspiration_score>  (148) 
None

$$$$
P104411
     RDKit          3D

 26 29  0  0  0  0  0  0  0  0999 V2000
   -3.5347    5.7141  -17.7020 C   0  0  0  0  0  0  0  0  0  0  0  0
   -4.9327    5.3085  -17.9886 C   0  0  0  0  0  0  0  0  0  0  0  0
   -5.4967    5.1057  -19.2307 C   0  0  0  0  0  0  0  0  0  0  0  0
   -6.8027    4.7270  -19.0575 N   0  0  0  0  0  0  0  0  0  0  0  0
   -7.0965    4.6447  -17.7151 C   0  0  0  0  0  0  0  0  0  0  0  0
   -8.2758    4.2721  -17.0583 C   0  0  0  0  0  0  0  0  0  0  0  0
   -9.6455    3.7588  -17.9558 Cl  0  0  0  0  0  0  0  0  0  0  0  0
   -8.3423    4.4003  -15.6673 C   0  0  0  0  0  0  0  0  0  0  0  0
   -7.2363    4.8780  -14.9659 C   0  0  0  0  0  0  0  0  0  0  0  0
   -7.3330    5.2816  -13.5408 C   0  0  0  0  0  0  0  0  0  0  0  0
   -7.0084    6.3749  -13.2854 O   0  0  0  0  0  0  0  0  0  0  0  0
   -7.8874    4.1612  -12.6291 N   0  0  0  0  0  0  0  0  0  0  0  0
   -8.0627    4.1226  -11.2447 C   0  0  0  0  0  0  0  0  0  0  0  0
   -7.7420    5.2580  -10.4658 C   0  0  0  0  0  0  0  0  0  0  0  0
   -7.9349    5.2735   -9.0812 C   0  0  0  0  0  0  0  0  0  0  0  0
   -8.4442    4.1303   -8.5077 C   0  0  0  0  0  0  0  0  0  0  0  0
   -8.7505    3.0116   -9.2593 C   0  0  0  0  0  0  0  0  0  0  0  0
   -8.5717    2.9722  -10.6341 C   0  0  0  0  0  0  0  0  0  0  0  0
   -9.3614    2.0438   -8.3512 C   0  0  0  0  0  0  0  0  0  0  0  0
   -9.8242    0.9810   -8.7102 O   0  0  0  0  0  0  0  0  0  0  0  0
   -9.3812    2.6219   -7.1117 N   0  0  0  0  0  0  0  0  0  0  0  0
  -10.1030    2.0651   -5.9984 C   0  0  0  0  0  0  0  0  0  0  0  0
   -8.8627    3.8826   -7.1299 C   0  0  0  0  0  0  0  0  0  0  0  0
   -8.7991    4.7169   -6.2444 O   0  0  0  0  0  0  0  0  0  0  0  0
   -6.0334    5.1827  -15.6259 C   0  0  0  0  0  0  0  0  0  0  0  0
   -5.9602    5.0640  -17.0257 C   0  0  0  0  0  0  0  0  0  0  0  0
  1  2  1  0
  2  3  2  0
  3  4  1  0
  4  5  1  0
  5  6  2  0
  6  7  1  0
  6  8  1  0
  8  9  2  0
  9 10  1  0
 10 11  2  0
 10 12  1  0
 12 13  1  0
 13 14  2  0
 14 15  1  0
 15 16  2  0
 16 17  1  0
 17 18  2  0
 17 19  1  0
 19 20  2  0
 19 21  1  0
 21 22  1  0
 21 23  1  0
 23 24  2  0
  9 25  1  0
 25 26  2  0
 26  2  1  0
 26  5  1  0
 18 13  1  0
 23 16  1  0
M  END
>  <name>  (149) 
P104411

>  <alias>  (149) 
None

>  <smina_score_min>  (149) 
-9.752

>  <exports>  (149) 
['/opt/xchem-fragalysis-2/maxwin/BulkDock/OUTPUTS/openbind_xx01zvns2b_c2_elabs_1LOUTNY.sdf', '/opt/xchem-fragalysis-2/maxwin/BulkDock/OUTPUTS/openbind_xx01zvns2b_c2_elabs_1LSYIIV.sdf']

>  <tags>  (149) 
syndirella_placed,openbind_xx01zvns2b_c2_elabs,openbind_xx01zvns2b_c2_elabs_scored_6.2plus,syndirella_product,openbind_xx01zvns2b_c2_elabs_scored,openbind_xx01zvns2b_c1_elabs_filtered,openbind_xx01zvns2b_c2_elabs_scored_top80percent,BulkDock Fragalysis export

>  <subsites>  (149) 
1 - Z4590/B/203/1

>  <smiles>  (149) 
Cc1c[nH]c2c(Cl)cc(C(=O)Nc3ccc4c(c3)C(=O)N(C)C4=O)cc12

>  <HIPPO Pose ID>  (149) 
104411

>  <energy_score>  (149) 
-8.124719

>  <inchikey>  (149) 
QSWOAURHZNNATI-UHFFFAOYSA-N

>  <gnina_score_min>  (149) 
6.32

>  <gnina_score>  (149) 
6.211

>  <ref_mols>  (149) 
Z4971a

>  <HIPPO Compound ID>  (149) 
141758

>  <distance_score>  (149) 
0.423264

>  <rmsd(smina/fragmenstein)>  (149) 
0.276

>  <ref_pdb>  (149) 
Z4971a

>  <inspiration_score>  (149) 
None

$$$$
P104412
     RDKit          3D

 26 29  0  0  0  0  0  0  0  0999 V2000
   -3.5363    5.6829  -17.7020 C   0  0  0  0  0  0  0  0  0  0  0  0
   -4.9368    5.2880  -17.9963 C   0  0  0  0  0  0  0  0  0  0  0  0
   -5.4887    5.0747  -19.2423 C   0  0  0  0  0  0  0  0  0  0  0  0
   -6.7966    4.7025  -19.0789 N   0  0  0  0  0  0  0  0  0  0  0  0
   -7.1056    4.6352  -17.7395 C   0  0  0  0  0  0  0  0  0  0  0  0
   -8.2928    4.2703  -17.0929 C   0  0  0  0  0  0  0  0  0  0  0  0
   -9.6508    3.7419  -17.9984 Cl  0  0  0  0  0  0  0  0  0  0  0  0
   -8.3814    4.4315  -15.7079 C   0  0  0  0  0  0  0  0  0  0  0  0
   -7.2909    4.9391  -15.0049 C   0  0  0  0  0  0  0  0  0  0  0  0
   -7.4400    5.4245  -13.6124 C   0  0  0  0  0  0  0  0  0  0  0  0
   -7.1321    6.5334  -13.4093 O   0  0  0  0  0  0  0  0  0  0  0  0
   -7.9944    4.3465  -12.6528 N   0  0  0  0  0  0  0  0  0  0  0  0
   -8.1900    4.3769  -11.2707 C   0  0  0  0  0  0  0  0  0  0  0  0
   -8.0212    5.5858  -10.5750 C   0  0  0  0  0  0  0  0  0  0  0  0
   -8.1395    5.6450   -9.1861 C   0  0  0  0  0  0  0  0  0  0  0  0
   -8.4293    4.4805   -8.4984 C   0  0  0  0  0  0  0  0  0  0  0  0
   -8.6254    3.2837   -9.1869 C   0  0  0  0  0  0  0  0  0  0  0  0
   -8.5174    3.2112  -10.5737 C   0  0  0  0  0  0  0  0  0  0  0  0
   -8.9189    2.1893   -8.2127 C   0  0  0  0  0  0  0  0  0  0  0  0
   -8.8192    2.8046   -6.8623 N   0  0  0  0  0  0  0  0  0  0  0  0
   -9.9667    2.4568   -6.0431 C   0  0  0  0  0  0  0  0  0  0  0  0
   -8.4745    4.2431   -7.0085 C   0  0  0  0  0  0  0  0  0  0  0  0
   -7.0540    4.4764   -6.4484 C   0  0  0  0  0  0  0  0  0  0  0  0
   -9.3800    5.2362   -6.2650 C   0  0  0  0  0  0  0  0  0  0  0  0
   -6.0734    5.2199  -15.6480 C   0  0  0  0  0  0  0  0  0  0  0  0
   -5.9782    5.0668  -17.0428 C   0  0  0  0  0  0  0  0  0  0  0  0
  1  2  1  0
  2  3  2  0
  3  4  1  0
  4  5  1  0
  5  6  2  0
  6  7  1  0
  6  8  1  0
  8  9  2  0
  9 10  1  0
 10 11  2  0
 10 12  1  0
 12 13  1  0
 13 14  2  0
 14 15  1  0
 15 16  2  0
 16 17  1  0
 17 18  2  0
 17 19  1  0
 19 20  1  0
 20 21  1  0
 20 22  1  0
 22 23  1  0
 22 24  1  0
  9 25  1  0
 25 26  2  0
 26  2  1  0
 26  5  1  0
 18 13  1  0
 22 16  1  0
M  END
>  <name>  (150) 
P104412

>  <alias>  (150) 
None

>  <smina_score_min>  (150) 
-9.72

>  <exports>  (150) 
['/opt/xchem-fragalysis-2/maxwin/BulkDock/OUTPUTS/openbind_xx01zvns2b_c2_elabs_1LOUTNY.sdf', '/opt/xchem-fragalysis-2/maxwin/BulkDock/OUTPUTS/openbind_xx01zvns2b_c2_elabs_1LSYIIV.sdf']

>  <tags>  (150) 
syndirella_placed,openbind_xx01zvns2b_c2_elabs,openbind_xx01zvns2b_c2_elabs_scored_6.2plus,syndirella_product,openbind_xx01zvns2b_c2_elabs_scored,openbind_xx01zvns2b_c1_elabs_filtered,openbind_xx01zvns2b_c2_elabs_scored_top80percent,BulkDock Fragalysis export

>  <subsites>  (150) 
1 - Z4590/B/203/1

>  <smiles>  (150) 
Cc1c[nH]c2c(Cl)cc(C(=O)Nc3ccc4c(c3)CN(C)C4(C)C)cc12

>  <HIPPO Pose ID>  (150) 
104412

>  <energy_score>  (150) 
-57.412001

>  <inchikey>  (150) 
HAWKVDYRYGSSFN-UHFFFAOYSA-N

>  <gnina_score_min>  (150) 
6.364

>  <gnina_score>  (150) 
6.366

>  <ref_mols>  (150) 
Z4971a

>  <HIPPO Compound ID>  (150) 
164476

>  <distance_score>  (150) 
0.510956

>  <rmsd(smina/fragmenstein)>  (150) 
0.203

>  <ref_pdb>  (150) 
Z4971a

>  <inspiration_score>  (150) 
None

$$$$
P104414
     RDKit          3D

 26 29  0  0  0  0  0  0  0  0999 V2000
   -9.0653    3.6943   -3.0139 C   0  0  0  0  0  0  0  0  0  0  0  0
   -8.4869    3.8524   -4.4055 C   0  0  0  0  0  0  0  0  0  0  0  0
   -9.2958    3.1977   -5.5500 C   0  0  0  0  0  0  0  0  0  0  0  0
   -8.5792    3.4376   -6.7930 N   0  0  0  0  0  0  0  0  0  0  0  0
   -8.5385    4.8523   -7.1496 C   0  0  0  0  0  0  0  0  0  0  0  0
   -8.3754    4.8541   -8.6199 C   0  0  0  0  0  0  0  0  0  0  0  0
   -8.0505    5.9365   -9.3997 C   0  0  0  0  0  0  0  0  0  0  0  0
   -7.9100    5.7167  -10.7561 C   0  0  0  0  0  0  0  0  0  0  0  0
   -8.0947    4.4390  -11.3191 C   0  0  0  0  0  0  0  0  0  0  0  0
   -7.8358    4.3111  -12.6838 N   0  0  0  0  0  0  0  0  0  0  0  0
   -7.3167    5.3475  -13.7101 C   0  0  0  0  0  0  0  0  0  0  0  0
   -6.9519    6.4484  -13.5576 O   0  0  0  0  0  0  0  0  0  0  0  0
   -7.2190    4.8355  -15.0891 C   0  0  0  0  0  0  0  0  0  0  0  0
   -8.3413    4.3722  -15.7685 C   0  0  0  0  0  0  0  0  0  0  0  0
   -8.2873    4.2368  -17.1575 C   0  0  0  0  0  0  0  0  0  0  0  0
   -9.6782    3.7563  -18.0382 Cl  0  0  0  0  0  0  0  0  0  0  0  0
   -7.1073    4.5900  -17.8260 C   0  0  0  0  0  0  0  0  0  0  0  0
   -6.8249    4.6774  -19.1690 N   0  0  0  0  0  0  0  0  0  0  0  0
   -5.5184    5.0448  -19.3564 C   0  0  0  0  0  0  0  0  0  0  0  0
   -4.9338    5.2216  -18.1207 C   0  0  0  0  0  0  0  0  0  0  0  0
   -3.5247    5.6002  -17.8468 C   0  0  0  0  0  0  0  0  0  0  0  0
   -5.9544    4.9841  -17.1508 C   0  0  0  0  0  0  0  0  0  0  0  0
   -6.0096    5.1006  -15.7545 C   0  0  0  0  0  0  0  0  0  0  0  0
   -8.4744    3.3526  -10.5131 C   0  0  0  0  0  0  0  0  0  0  0  0
   -8.6080    3.5798   -9.1453 C   0  0  0  0  0  0  0  0  0  0  0  0
   -8.9958    2.6746   -7.9992 C   0  0  0  0  0  0  0  0  0  0  0  0
  1  2  1  0
  2  3  1  0
  3  4  1  0
  4  5  1  0
  5  6  1  0
  6  7  2  0
  7  8  1  0
  8  9  2  0
  9 10  1  0
 10 11  1  0
 11 12  2  0
 11 13  1  0
 13 14  2  0
 14 15  1  0
 15 16  1  0
 15 17  2  0
 17 18  1  0
 18 19  1  0
 19 20  2  0
 20 21  1  0
 20 22  1  0
 22 23  2  0
  9 24  1  0
 24 25  2  0
 25 26  1  0
 26  4  1  0
 25  6  1  0
 23 13  1  0
 22 17  1  0
M  END
>  <name>  (151) 
P104414

>  <alias>  (151) 
None

>  <smina_score_min>  (151) 
-8.814

>  <exports>  (151) 
['/opt/xchem-fragalysis-2/maxwin/BulkDock/OUTPUTS/openbind_xx01zvns2b_c2_elabs_1LOUTNY.sdf', '/opt/xchem-fragalysis-2/maxwin/BulkDock/OUTPUTS/openbind_xx01zvns2b_c2_elabs_1LSYIIV.sdf']

>  <tags>  (151) 
syndirella_placed,openbind_xx01zvns2b_c2_elabs,openbind_xx01zvns2b_c2_elabs_scored_6.2plus,syndirella_product,openbind_xx01zvns2b_c2_elabs_scored,openbind_xx01zvns2b_c1_elabs_filtered,openbind_xx01zvns2b_c2_elabs_scored_top80percent,BulkDock Fragalysis export

>  <subsites>  (151) 
1 - Z4590/B/203/1

>  <smiles>  (151) 
CCCN1Cc2ccc(NC(=O)c3cc(Cl)c4[nH]cc(C)c4c3)cc2C1

>  <HIPPO Pose ID>  (151) 
104414

>  <energy_score>  (151) 
-3.805594

>  <inchikey>  (151) 
COMPLOZDSUKZEM-UHFFFAOYSA-N

>  <gnina_score_min>  (151) 
6.232

>  <gnina_score>  (151) 
6.21

>  <ref_mols>  (151) 
Z4971a

>  <HIPPO Compound ID>  (151) 
164478

>  <distance_score>  (151) 
0.694297

>  <rmsd(smina/fragmenstein)>  (151) 
0.278

>  <ref_pdb>  (151) 
Z4971a

>  <inspiration_score>  (151) 
None

$$$$
P104418
     RDKit          3D

 28 31  0  0  0  0  0  0  0  0999 V2000
   -3.5273    5.6283  -17.7764 C   0  0  0  0  0  0  0  0  0  0  0  0
   -4.9263    5.2362  -18.0825 C   0  0  0  0  0  0  0  0  0  0  0  0
   -5.4781    5.0523  -19.3325 C   0  0  0  0  0  0  0  0  0  0  0  0
   -6.7871    4.6797  -19.1777 N   0  0  0  0  0  0  0  0  0  0  0  0
   -7.1007    4.5885  -17.8418 C   0  0  0  0  0  0  0  0  0  0  0  0
   -8.2952    4.2270  -17.2055 C   0  0  0  0  0  0  0  0  0  0  0  0
   -9.6616    3.7366  -18.1157 Cl  0  0  0  0  0  0  0  0  0  0  0  0
   -8.3881    4.3677  -15.8215 C   0  0  0  0  0  0  0  0  0  0  0  0
   -7.2911    4.8491  -15.1152 C   0  0  0  0  0  0  0  0  0  0  0  0
   -7.4651    5.3930  -13.7594 C   0  0  0  0  0  0  0  0  0  0  0  0
   -7.2729    6.5406  -13.6450 O   0  0  0  0  0  0  0  0  0  0  0  0
   -7.9054    4.3414  -12.7147 N   0  0  0  0  0  0  0  0  0  0  0  0
   -8.1022    4.4586  -11.3400 C   0  0  0  0  0  0  0  0  0  0  0  0
   -7.9170    5.7322  -10.7687 C   0  0  0  0  0  0  0  0  0  0  0  0
   -8.0626    5.9427   -9.4099 C   0  0  0  0  0  0  0  0  0  0  0  0
   -8.3844    4.8543   -8.6364 C   0  0  0  0  0  0  0  0  0  0  0  0
   -8.5857    3.5806   -9.1708 C   0  0  0  0  0  0  0  0  0  0  0  0
   -8.4545    3.3621  -10.5385 C   0  0  0  0  0  0  0  0  0  0  0  0
   -8.9619    2.6623   -8.0383 C   0  0  0  0  0  0  0  0  0  0  0  0
   -8.5928    3.4290   -6.8095 N   0  0  0  0  0  0  0  0  0  0  0  0
   -9.4017    3.1436   -5.6377 C   0  0  0  0  0  0  0  0  0  0  0  0
   -8.6692    3.4631   -4.3135 C   0  0  0  0  0  0  0  0  0  0  0  0
   -8.3810    4.9323   -3.9456 C   0  0  0  0  0  0  0  0  0  0  0  0
   -8.7963    5.2088   -2.4939 C   0  0  0  0  0  0  0  0  0  0  0  0
   -6.8849    5.2514   -4.0698 C   0  0  0  0  0  0  0  0  0  0  0  0
   -8.5901    4.8430   -7.1695 C   0  0  0  0  0  0  0  0  0  0  0  0
   -6.0646    5.1236  -15.7421 C   0  0  0  0  0  0  0  0  0  0  0  0
   -5.9694    4.9955  -17.1367 C   0  0  0  0  0  0  0  0  0  0  0  0
  1  2  1  0
  2  3  2  0
  3  4  1  0
  4  5  1  0
  5  6  2  0
  6  7  1  0
  6  8  1  0
  8  9  2  0
  9 10  1  0
 10 11  2  0
 10 12  1  0
 12 13  1  0
 13 14  2  0
 14 15  1  0
 15 16  2  0
 16 17  1  0
 17 18  2  0
 17 19  1  0
 19 20  1  0
 20 21  1  0
 21 22  1  0
 22 23  1  0
 23 24  1  0
 23 25  1  0
 20 26  1  0
  9 27  1  0
 27 28  2  0
 28  2  1  0
 28  5  1  0
 18 13  1  0
 26 16  1  0
M  END
>  <name>  (152) 
P104418

>  <alias>  (152) 
None

>  <smina_score_min>  (152) 
-8.564

>  <exports>  (152) 
['/opt/xchem-fragalysis-2/maxwin/BulkDock/OUTPUTS/openbind_xx01zvns2b_c2_elabs_1LOUTNY.sdf', '/opt/xchem-fragalysis-2/maxwin/BulkDock/OUTPUTS/openbind_xx01zvns2b_c2_elabs_1LSYIIV.sdf']

>  <tags>  (152) 
syndirella_placed,openbind_xx01zvns2b_c2_elabs,openbind_xx01zvns2b_c2_elabs_scored_6.2plus,syndirella_product,openbind_xx01zvns2b_c2_elabs_scored,openbind_xx01zvns2b_c1_elabs_filtered,openbind_xx01zvns2b_c2_elabs_scored_top80percent,BulkDock Fragalysis export

>  <subsites>  (152) 
1 - Z4590/B/203/1

>  <smiles>  (152) 
Cc1c[nH]c2c(Cl)cc(C(=O)Nc3ccc4c(c3)CN(CCC(C)C)C4)cc12

>  <HIPPO Pose ID>  (152) 
104418

>  <energy_score>  (152) 
-2.988091

>  <inchikey>  (152) 
VMOQTKOSYUSKKR-UHFFFAOYSA-N

>  <gnina_score_min>  (152) 
6.217

>  <gnina_score>  (152) 
6.246

>  <ref_mols>  (152) 
Z4971a

>  <HIPPO Compound ID>  (152) 
164487

>  <distance_score>  (152) 
0.713661

>  <rmsd(smina/fragmenstein)>  (152) 
0.476

>  <ref_pdb>  (152) 
Z4971a

>  <inspiration_score>  (152) 
None

$$$$
P104428
     RDKit          3D

 32 36  0  0  0  0  0  0  0  0999 V2000
   -3.5744    5.5958  -17.6763 C   0  0  0  0  0  0  0  0  0  0  0  0
   -4.9679    5.2040  -18.0080 C   0  0  0  0  0  0  0  0  0  0  0  0
   -5.5023    5.0517  -19.2703 C   0  0  0  0  0  0  0  0  0  0  0  0
   -6.8135    4.6766  -19.1434 N   0  0  0  0  0  0  0  0  0  0  0  0
   -7.1452    4.5506  -17.8144 C   0  0  0  0  0  0  0  0  0  0  0  0
   -8.3514    4.1817  -17.2046 C   0  0  0  0  0  0  0  0  0  0  0  0
   -9.7108    3.7396  -18.1475 Cl  0  0  0  0  0  0  0  0  0  0  0  0
   -8.4662    4.2846  -15.8189 C   0  0  0  0  0  0  0  0  0  0  0  0
   -7.3789    4.7360  -15.0811 C   0  0  0  0  0  0  0  0  0  0  0  0
   -7.6059    5.3345  -13.7583 C   0  0  0  0  0  0  0  0  0  0  0  0
   -7.4814    6.4982  -13.7289 O   0  0  0  0  0  0  0  0  0  0  0  0
   -7.9921    4.3363  -12.6360 N   0  0  0  0  0  0  0  0  0  0  0  0
   -8.2051    4.5444  -11.2700 C   0  0  0  0  0  0  0  0  0  0  0  0
   -8.1194    5.8851  -10.8454 C   0  0  0  0  0  0  0  0  0  0  0  0
   -8.2074    6.2339   -9.5177 C   0  0  0  0  0  0  0  0  0  0  0  0
   -8.3686    5.2125   -8.6176 C   0  0  0  0  0  0  0  0  0  0  0  0
   -8.5134    3.8656   -8.9861 C   0  0  0  0  0  0  0  0  0  0  0  0
   -8.4415    3.5128  -10.3373 C   0  0  0  0  0  0  0  0  0  0  0  0
   -8.6802    3.0615   -7.7006 C   0  0  0  0  0  0  0  0  0  0  0  0
   -8.0756    4.0075   -6.7122 N   0  0  0  0  0  0  0  0  0  0  0  0
   -8.0551    3.9799   -5.3319 C   0  0  0  0  0  0  0  0  0  0  0  0
   -6.9559    4.5840   -4.6834 C   0  0  0  0  0  0  0  0  0  0  0  0
   -6.9308    4.8205   -3.3079 C   0  0  0  0  0  0  0  0  0  0  0  0
   -8.0328    4.4836   -2.5249 C   0  0  0  0  0  0  0  0  0  0  0  0
   -8.0295    4.8132   -1.0434 C   0  0  0  0  0  0  0  0  0  0  0  0
   -8.8269    3.8345   -0.1744 C   0  0  0  0  0  0  0  0  0  0  0  0
   -8.5333    6.2417   -0.8214 C   0  0  0  0  0  0  0  0  0  0  0  0
   -9.1234    3.8854   -3.1670 C   0  0  0  0  0  0  0  0  0  0  0  0
   -9.1244    3.5956   -4.5430 C   0  0  0  0  0  0  0  0  0  0  0  0
   -8.3532    5.3751   -7.1484 C   0  0  0  0  0  0  0  0  0  0  0  0
   -6.1397    5.0199  -15.6839 C   0  0  0  0  0  0  0  0  0  0  0  0
   -6.0224    4.9319  -17.0817 C   0  0  0  0  0  0  0  0  0  0  0  0
  1  2  1  0
  2  3  2  0
  3  4  1  0
  4  5  1  0
  5  6  2  0
  6  7  1  0
  6  8  1  0
  8  9  2  0
  9 10  1  0
 10 11  2  0
 10 12  1  0
 12 13  1  0
 13 14  2  0
 14 15  1  0
 15 16  2  0
 16 17  1  0
 17 18  2  0
 17 19  1  0
 19 20  1  0
 20 21  1  0
 21 22  2  0
 22 23  1  0
 23 24  2  0
 24 25  1  0
 25 26  1  0
 25 27  1  0
 24 28  1  0
 28 29  2  0
 20 30  1  0
  9 31  1  0
 31 32  2  0
 32  2  1  0
 32  5  1  0
 18 13  1  0
 29 21  1  0
 30 16  1  0
M  END
>  <name>  (153) 
P104428

>  <alias>  (153) 
None

>  <smina_score_min>  (153) 
-9.685

>  <exports>  (153) 
['/opt/xchem-fragalysis-2/maxwin/BulkDock/OUTPUTS/openbind_xx01zvns2b_c2_elabs_1LOUTNY.sdf', '/opt/xchem-fragalysis-2/maxwin/BulkDock/OUTPUTS/openbind_xx01zvns2b_c2_elabs_1LSYIIV.sdf']

>  <tags>  (153) 
syndirella_placed,openbind_xx01zvns2b_c2_elabs,openbind_xx01zvns2b_c2_elabs_scored_6.2plus,syndirella_product,openbind_xx01zvns2b_c2_elabs_scored,openbind_xx01zvns2b_c1_elabs_filtered,openbind_xx01zvns2b_c2_elabs_scored_top80percent,BulkDock Fragalysis export

>  <subsites>  (153) 
1 - Z4590/B/203/1

>  <smiles>  (153) 
Cc1c[nH]c2c(Cl)cc(C(=O)Nc3ccc4c(c3)CN(c3ccc(C(C)C)cc3)C4)cc12

>  <HIPPO Pose ID>  (153) 
104428

>  <energy_score>  (153) 
-7.249028

>  <inchikey>  (153) 
CJTNCTJOWRTOKT-UHFFFAOYSA-N

>  <gnina_score_min>  (153) 
6.201

>  <gnina_score>  (153) 
6.265

>  <ref_mols>  (153) 
Z4971a

>  <HIPPO Compound ID>  (153) 
164504

>  <distance_score>  (153) 
0.918981

>  <rmsd(smina/fragmenstein)>  (153) 
0.433

>  <ref_pdb>  (153) 
Z4971a

>  <inspiration_score>  (153) 
None

$$$$
P105263
     RDKit          3D

 30 33  0  0  0  0  0  0  0  0999 V2000
   -9.8229    1.3229   -7.1708 C   0  0  0  0  0  0  0  0  0  0  0  0
   -9.1297    2.6182   -7.4280 C   0  0  0  0  0  0  0  0  0  0  0  0
   -8.5628    2.7708   -8.6538 N   0  0  0  0  0  0  0  0  0  0  0  0
   -7.8459    3.8834   -8.9598 C   0  0  0  0  0  0  0  0  0  0  0  0
   -7.2509    3.8506  -10.1985 N   0  0  0  0  0  0  0  0  0  0  0  0
   -6.1854    4.7007  -10.6808 C   0  0  0  0  0  0  0  0  0  0  0  0
   -6.8837    5.6464  -11.6374 C   0  0  0  0  0  0  0  0  0  0  0  0
   -8.0069    4.7992  -12.2437 C   0  0  1  0  0  0  0  0  0  0  0  0
   -7.8255    4.5505  -13.6608 N   0  0  0  0  0  0  0  0  0  0  0  0
   -7.2915    5.4706  -14.7800 C   0  0  0  0  0  0  0  0  0  0  0  0
   -6.8422    6.5448  -14.7247 O   0  0  0  0  0  0  0  0  0  0  0  0
   -7.4917    4.8886  -16.1397 C   0  0  0  0  0  0  0  0  0  0  0  0
   -8.7514    4.3105  -16.4225 C   0  0  0  0  0  0  0  0  0  0  0  0
   -9.0957    3.8913  -17.7152 C   0  0  0  0  0  0  0  0  0  0  0  0
   -8.1845    4.0249  -18.7521 C   0  0  0  0  0  0  0  0  0  0  0  0
   -6.9582    4.5907  -18.4619 C   0  0  0  0  0  0  0  0  0  0  0  0
   -6.5898    5.0594  -17.1909 C   0  0  0  0  0  0  0  0  0  0  0  0
   -5.2105    5.6998  -17.3135 C   0  0  0  0  0  0  0  0  0  0  0  0
   -4.1674    5.2981  -16.2775 C   0  0  0  0  0  0  0  0  0  0  0  0
   -5.2520    7.2344  -17.4032 C   0  0  0  0  0  0  0  0  0  0  0  0
   -4.7891    5.2438  -18.7387 C   0  0  0  0  0  0  0  0  0  0  0  0
   -3.6857    5.3452  -19.2544 O   0  0  0  0  0  0  0  0  0  0  0  0
   -5.9186    4.7498  -19.3631 N   0  0  0  0  0  0  0  0  0  0  0  0
   -8.1186    3.5398  -11.3413 C   0  0  0  0  0  0  0  0  0  0  0  0
   -7.7509    4.9077   -8.0034 C   0  0  0  0  0  0  0  0  0  0  0  0
   -7.0185    6.4590   -8.2374 Cl  0  0  0  0  0  0  0  0  0  0  0  0
   -8.3547    4.7524   -6.7534 C   0  0  0  0  0  0  0  0  0  0  0  0
   -9.0494    3.5927   -6.4506 C   0  0  0  0  0  0  0  0  0  0  0  0
   -9.6916    3.5070   -5.1794 C   0  0  0  0  0  0  0  0  0  0  0  0
  -10.2068    3.5782   -4.1425 N   0  0  0  0  0  0  0  0  0  0  0  0
  1  2  1  0
  2  3  2  0
  3  4  1  0
  4  5  1  0
  5  6  1  0
  6  7  1  0
  7  8  1  0
  8  9  1  6
  9 10  1  0
 10 11  2  0
 10 12  1  0
 12 13  2  0
 13 14  1  0
 14 15  2  0
 15 16  1  0
 16 17  2  0
 17 18  1  0
 18 19  1  0
 18 20  1  0
 18 21  1  0
 21 22  2  0
 21 23  1  0
  8 24  1  0
  4 25  2  0
 25 26  1  0
 25 27  1  0
 27 28  2  0
 28 29  1  0
 29 30  3  0
 28  2  1  0
 24  5  1  0
 17 12  1  0
 23 16  1  0
M  END
>  <name>  (154) 
P105263

>  <alias>  (154) 
None

>  <smina_score_min>  (154) 
-9.981

>  <exports>  (154) 
['/opt/xchem-fragalysis-2/maxwin/BulkDock/OUTPUTS/openbind_xx01zvns2b_c2_elabs_1LOUTNY.sdf', '/opt/xchem-fragalysis-2/maxwin/BulkDock/OUTPUTS/openbind_xx01zvns2b_c2_elabs_1LSYIIV.sdf']

>  <tags>  (154) 
syndirella_placed,openbind_xx01zvns2b_c2_elabs,openbind_xx01zvns2b_c2_elabs_scored_6.2plus,syndirella_product,openbind_xx01zvns2b_c2_elabs_scored,openbind_xx01zvns2b_c2_elabs_scored_top80percent,BulkDock Fragalysis export

>  <subsites>  (154) 
1 - Z4590/B/203/1

>  <smiles>  (154) 
Cc1nc(N2CC[C@@H](NC(=O)c3cccc4c3C(C)(C)C(=O)N4)C2)c(Cl)cc1C#N

>  <HIPPO Pose ID>  (154) 
105263

>  <energy_score>  (154) 
-9.179518

>  <inchikey>  (154) 
HAEPKFNKQVAITQ-CQSZACIVSA-N

>  <gnina_score_min>  (154) 
6.291

>  <gnina_score>  (154) 
6.261

>  <ref_mols>  (154) 
Z3799a

>  <HIPPO Compound ID>  (154) 
166251

>  <distance_score>  (154) 
0.746997

>  <rmsd(smina/fragmenstein)>  (154) 
0.735

>  <ref_pdb>  (154) 
Z3799a

>  <inspiration_score>  (154) 
None

$$$$
P105264
     RDKit          3D

 31 34  0  0  0  0  0  0  0  0999 V2000
   -4.1457    5.2635  -16.2459 C   0  0  0  0  0  0  0  0  0  0  0  0
   -5.1919    5.6818  -17.2722 C   0  0  0  0  0  0  0  0  0  0  0  0
   -5.2404    7.2175  -17.3249 C   0  0  0  0  0  0  0  0  0  0  0  0
   -4.7715    5.2582  -18.7086 C   0  0  0  0  0  0  0  0  0  0  0  0
   -3.6696    5.3717  -19.2248 O   0  0  0  0  0  0  0  0  0  0  0  0
   -5.9014    4.7778  -19.3439 N   0  0  0  0  0  0  0  0  0  0  0  0
   -6.9408    4.5996  -18.4460 C   0  0  0  0  0  0  0  0  0  0  0  0
   -8.1680    4.0421  -18.7505 C   0  0  0  0  0  0  0  0  0  0  0  0
   -9.0809    3.8885  -17.7182 C   0  0  0  0  0  0  0  0  0  0  0  0
   -8.7343    4.2757  -16.4167 C   0  0  0  0  0  0  0  0  0  0  0  0
   -7.4704    4.8390  -16.1178 C   0  0  0  0  0  0  0  0  0  0  0  0
   -7.2771    5.3722  -14.7374 C   0  0  0  0  0  0  0  0  0  0  0  0
   -6.8458    6.4517  -14.6357 O   0  0  0  0  0  0  0  0  0  0  0  0
   -7.7963    4.3940  -13.6567 N   0  0  0  0  0  0  0  0  0  0  0  0
   -7.9813    4.5782  -12.2331 C   0  0  2  0  0  0  0  0  0  0  0  0
   -7.5626    5.9517  -11.7443 C   0  0  0  0  0  0  0  0  0  0  0  0
   -7.5859    5.7839  -10.2376 C   0  0  0  0  0  0  0  0  0  0  0  0
   -7.1591    4.3941   -9.9957 N   0  0  0  0  0  0  0  0  0  0  0  0
   -7.8201    3.8257   -8.8907 C   0  0  0  0  0  0  0  0  0  0  0  0
   -8.6290    2.7658   -9.1036 N   0  0  0  0  0  0  0  0  0  0  0  0
   -9.3529    2.2633   -8.0761 C   0  0  0  0  0  0  0  0  0  0  0  0
   -9.3738    2.8093   -6.8069 C   0  0  0  0  0  0  0  0  0  0  0  0
  -10.3674    2.3432   -5.7960 C   0  0  0  0  0  0  0  0  0  0  0  0
  -10.0248    2.6649   -4.5180 F   0  0  0  0  0  0  0  0  0  0  0  0
  -11.5775    2.9437   -5.9781 F   0  0  0  0  0  0  0  0  0  0  0  0
  -10.5968    1.0117   -5.8361 F   0  0  0  0  0  0  0  0  0  0  0  0
   -8.5101    3.8711   -6.5601 C   0  0  0  0  0  0  0  0  0  0  0  0
   -7.7099    4.3664   -7.5919 C   0  0  0  0  0  0  0  0  0  0  0  0
   -6.6101    5.6361   -7.1664 Cl  0  0  0  0  0  0  0  0  0  0  0  0
   -7.2140    3.6469  -11.2815 C   0  0  0  0  0  0  0  0  0  0  0  0
   -6.5701    5.0377  -17.1641 C   0  0  0  0  0  0  0  0  0  0  0  0
  1  2  1  0
  2  3  1  0
  2  4  1  0
  4  5  2  0
  4  6  1  0
  6  7  1  0
  7  8  2  0
  8  9  1  0
  9 10  2  0
 10 11  1  0
 11 12  1  0
 12 13  2  0
 12 14  1  0
 15 14  1  6
 15 16  1  0
 16 17  1  0
 17 18  1  0
 18 19  1  0
 19 20  2  0
 20 21  1  0
 21 22  2  0
 22 23  1  0
 23 24  1  0
 23 25  1  0
 23 26  1  0
 22 27  1  0
 27 28  2  0
 28 29  1  0
 18 30  1  0
 11 31  2  0
 31  2  1  0
 31  7  1  0
 30 15  1  0
 28 19  1  0
M  END
>  <name>  (155) 
P105264

>  <alias>  (155) 
None

>  <smina_score_min>  (155) 
-10.611

>  <exports>  (155) 
['/opt/xchem-fragalysis-2/maxwin/BulkDock/OUTPUTS/openbind_xx01zvns2b_c2_elabs_1LOUTNY.sdf', '/opt/xchem-fragalysis-2/maxwin/BulkDock/OUTPUTS/openbind_xx01zvns2b_c2_elabs_1LSYIIV.sdf']

>  <tags>  (155) 
syndirella_placed,openbind_xx01zvns2b_c2_elabs,openbind_xx01zvns2b_c2_elabs_scored_6.2plus,syndirella_product,openbind_xx01zvns2b_c2_elabs_scored,openbind_xx01zvns2b_c2_elabs_scored_top80percent,BulkDock Fragalysis export

>  <subsites>  (155) 
1 - Z4590/B/203/1

>  <smiles>  (155) 
CC1(C)C(=O)Nc2cccc(C(=O)N[C@@H]3CCN(c4ncc(C(F)(F)F)cc4Cl)C3)c21

>  <HIPPO Pose ID>  (155) 
105264

>  <energy_score>  (155) 
-21.559335

>  <inchikey>  (155) 
ISDXZUKMNXLIDZ-GFCCVEGCSA-N

>  <gnina_score_min>  (155) 
6.424

>  <gnina_score>  (155) 
6.239

>  <ref_mols>  (155) 
Z3799a

>  <HIPPO Compound ID>  (155) 
166252

>  <distance_score>  (155) 
0.635665

>  <rmsd(smina/fragmenstein)>  (155) 
0.335

>  <ref_pdb>  (155) 
Z3799a

>  <inspiration_score>  (155) 
None

$$$$
P105274
     RDKit          3D

 23 25  0  0  0  0  0  0  0  0999 V2000
   -6.7336    3.6134  -20.4972 N   0  0  0  0  0  0  0  0  0  0  0  0
   -6.8988    3.9698  -19.4039 C   0  0  0  0  0  0  0  0  0  0  0  0
   -7.0456    4.3279  -18.0236 C   0  0  0  0  0  0  0  0  0  0  0  0
   -5.9738    4.8773  -17.3095 C   0  0  0  0  0  0  0  0  0  0  0  0
   -4.4492    5.2189  -18.0560 Cl  0  0  0  0  0  0  0  0  0  0  0  0
   -6.1057    5.1786  -15.9510 C   0  0  0  0  0  0  0  0  0  0  0  0
   -7.3065    4.9111  -15.2865 C   0  0  0  0  0  0  0  0  0  0  0  0
   -7.4397    5.3527  -13.8757 C   0  0  0  0  0  0  0  0  0  0  0  0
   -7.1105    6.4452  -13.6261 O   0  0  0  0  0  0  0  0  0  0  0  0
   -7.9954    4.2380  -12.9574 N   0  0  0  0  0  0  0  0  0  0  0  0
   -8.1666    4.2057  -11.5708 C   0  0  0  0  0  0  0  0  0  0  0  0
   -7.9803    5.3702  -10.8004 C   0  0  0  0  0  0  0  0  0  0  0  0
   -8.1374    5.3471   -9.4116 C   0  0  0  0  0  0  0  0  0  0  0  0
   -8.4770    4.1425   -8.8309 C   0  0  0  0  0  0  0  0  0  0  0  0
   -8.6618    2.9769   -9.5706 C   0  0  0  0  0  0  0  0  0  0  0  0
   -8.5151    2.9953  -10.9513 C   0  0  0  0  0  0  0  0  0  0  0  0
   -8.9861    1.8485   -8.6460 C   0  0  0  0  0  0  0  0  0  0  0  0
   -9.0791    2.5062   -7.3598 N   0  0  0  0  0  0  0  0  0  0  0  0
   -8.6971    3.8280   -7.4149 C   0  0  0  0  0  0  0  0  0  0  0  0
   -8.5466    4.6040   -6.4903 O   0  0  0  0  0  0  0  0  0  0  0  0
   -8.3814    4.3626  -15.9810 C   0  0  0  0  0  0  0  0  0  0  0  0
   -8.2497    4.0888  -17.3478 C   0  0  0  0  0  0  0  0  0  0  0  0
   -9.6330    3.4752  -18.1690 Cl  0  0  0  0  0  0  0  0  0  0  0  0
  1  2  3  0
  2  3  1  0
  3  4  2  0
  4  5  1  0
  4  6  1  0
  6  7  2  0
  7  8  1  0
  8  9  2  0
  8 10  1  0
 10 11  1  0
 11 12  2  0
 12 13  1  0
 13 14  2  0
 14 15  1  0
 15 16  2  0
 15 17  1  0
 17 18  1  0
 18 19  1  0
 19 20  2  0
  7 21  1  0
 21 22  2  0
 22 23  1  0
 22  3  1  0
 16 11  1  0
 19 14  1  0
M  END
>  <name>  (156) 
P105274

>  <alias>  (156) 
None

>  <smina_score_min>  (156) 
-8.956

>  <exports>  (156) 
['/opt/xchem-fragalysis-2/maxwin/BulkDock/OUTPUTS/openbind_xx01zvns2b_c2_elabs_1LOUTNY.sdf', '/opt/xchem-fragalysis-2/maxwin/BulkDock/OUTPUTS/openbind_xx01zvns2b_c2_elabs_1LSYIIV.sdf']

>  <tags>  (156) 
syndirella_placed,openbind_xx01zvns2b_c2_elabs,openbind_xx01zvns2b_c2_elabs_scored_6.2plus,syndirella_product,openbind_xx01zvns2b_c2_elabs_scored,openbind_xx01zvns2b_c2_elabs_scored_top80percent,BulkDock Fragalysis export

>  <subsites>  (156) 
1 - Z4590/B/203/1

>  <smiles>  (156) 
N#Cc1c(Cl)cc(C(=O)Nc2ccc3c(c2)CNC3=O)cc1Cl

>  <HIPPO Pose ID>  (156) 
105274

>  <energy_score>  (156) 
-16.101716

>  <inchikey>  (156) 
NQBRDXXVTAYQCB-UHFFFAOYSA-N

>  <gnina_score_min>  (156) 
6.299

>  <gnina_score>  (156) 
6.184

>  <ref_mols>  (156) 
Z3473a

>  <HIPPO Compound ID>  (156) 
166262

>  <distance_score>  (156) 
0.397631

>  <rmsd(smina/fragmenstein)>  (156) 
0.325

>  <ref_pdb>  (156) 
Z3473a

>  <inspiration_score>  (156) 
None

$$$$
P105275
     RDKit          3D

 23 25  0  0  0  0  0  0  0  0999 V2000
  -10.0916    2.2240   -6.3870 C   0  0  0  0  0  0  0  0  0  0  0  0
   -8.9952    2.5800   -7.2611 N   0  0  0  0  0  0  0  0  0  0  0  0
   -8.7326    4.0175   -7.3628 C   0  0  0  0  0  0  0  0  0  0  0  0
   -8.4650    4.2751   -8.8100 C   0  0  0  0  0  0  0  0  0  0  0  0
   -8.0938    5.4533   -9.4294 C   0  0  0  0  0  0  0  0  0  0  0  0
   -7.9279    5.4483  -10.8176 C   0  0  0  0  0  0  0  0  0  0  0  0
   -8.1374    4.2792  -11.5683 C   0  0  0  0  0  0  0  0  0  0  0  0
   -7.9659    4.2864  -12.9550 N   0  0  0  0  0  0  0  0  0  0  0  0
   -7.4001    5.3803  -13.8920 C   0  0  0  0  0  0  0  0  0  0  0  0
   -7.0608    6.4740  -13.6608 O   0  0  0  0  0  0  0  0  0  0  0  0
   -7.2797    4.9194  -15.2974 C   0  0  0  0  0  0  0  0  0  0  0  0
   -8.3635    4.3705  -15.9779 C   0  0  0  0  0  0  0  0  0  0  0  0
   -8.2454    4.0889  -17.3443 C   0  0  0  0  0  0  0  0  0  0  0  0
   -9.6400    3.4808  -18.1513 Cl  0  0  0  0  0  0  0  0  0  0  0  0
   -7.0468    4.3203  -18.0330 C   0  0  0  0  0  0  0  0  0  0  0  0
   -6.9182    3.9574  -19.4135 C   0  0  0  0  0  0  0  0  0  0  0  0
   -6.7796    3.5989  -20.5094 N   0  0  0  0  0  0  0  0  0  0  0  0
   -5.9665    4.8700  -17.3328 C   0  0  0  0  0  0  0  0  0  0  0  0
   -4.4499    5.2093  -18.0962 Cl  0  0  0  0  0  0  0  0  0  0  0  0
   -6.0843    5.1784  -15.9749 C   0  0  0  0  0  0  0  0  0  0  0  0
   -8.5192    3.0951  -10.9268 C   0  0  0  0  0  0  0  0  0  0  0  0
   -8.6742    3.1121   -9.5456 C   0  0  0  0  0  0  0  0  0  0  0  0
   -9.0933    2.0107   -8.6204 C   0  0  0  0  0  0  0  0  0  0  0  0
  1  2  1  0
  2  3  1  0
  3  4  1  0
  4  5  2  0
  5  6  1  0
  6  7  2  0
  7  8  1  0
  8  9  1  0
  9 10  2  0
  9 11  1  0
 11 12  2  0
 12 13  1  0
 13 14  1  0
 13 15  2  0
 15 16  1  0
 16 17  3  0
 15 18  1  0
 18 19  1  0
 18 20  2  0
  7 21  1  0
 21 22  2  0
 22 23  1  0
 23  2  1  0
 22  4  1  0
 20 11  1  0
M  END
>  <name>  (157) 
P105275

>  <alias>  (157) 
None

>  <smina_score_min>  (157) 
-8.658

>  <exports>  (157) 
['/opt/xchem-fragalysis-2/maxwin/BulkDock/OUTPUTS/openbind_xx01zvns2b_c2_elabs_1LOUTNY.sdf', '/opt/xchem-fragalysis-2/maxwin/BulkDock/OUTPUTS/openbind_xx01zvns2b_c2_elabs_1LSYIIV.sdf']

>  <tags>  (157) 
syndirella_placed,openbind_xx01zvns2b_c2_elabs,openbind_xx01zvns2b_c2_elabs_scored_6.2plus,syndirella_product,openbind_xx01zvns2b_c2_elabs_scored,openbind_xx01zvns2b_c2_elabs_scored_top80percent,BulkDock Fragalysis export

>  <subsites>  (157) 
1 - Z4590/B/203/1

>  <smiles>  (157) 
CN1Cc2ccc(NC(=O)c3cc(Cl)c(C#N)c(Cl)c3)cc2C1

>  <HIPPO Pose ID>  (157) 
105275

>  <energy_score>  (157) 
-3.953687

>  <inchikey>  (157) 
WFWIQUFBBHXCSL-UHFFFAOYSA-N

>  <gnina_score_min>  (157) 
6.309

>  <gnina_score>  (157) 
6.207

>  <ref_mols>  (157) 
Z3473a

>  <HIPPO Compound ID>  (157) 
166263

>  <distance_score>  (157) 
0.434081

>  <rmsd(smina/fragmenstein)>  (157) 
0.327

>  <ref_pdb>  (157) 
Z3473a

>  <inspiration_score>  (157) 
None

$$$$
P105279
     RDKit          3D

 24 26  0  0  0  0  0  0  0  0999 V2000
   -6.7359    3.6408  -20.4322 N   0  0  0  0  0  0  0  0  0  0  0  0
   -6.9121    3.9797  -19.3346 C   0  0  0  0  0  0  0  0  0  0  0  0
   -7.0732    4.3086  -17.9467 C   0  0  0  0  0  0  0  0  0  0  0  0
   -8.2845    4.0581  -17.2869 C   0  0  0  0  0  0  0  0  0  0  0  0
   -9.6625    3.4822  -18.1446 Cl  0  0  0  0  0  0  0  0  0  0  0  0
   -8.4306    4.2929  -15.9116 C   0  0  0  0  0  0  0  0  0  0  0  0
   -7.3620    4.8142  -15.1893 C   0  0  0  0  0  0  0  0  0  0  0  0
   -7.4995    5.2452  -13.7734 C   0  0  0  0  0  0  0  0  0  0  0  0
   -7.1688    6.3411  -13.5352 O   0  0  0  0  0  0  0  0  0  0  0  0
   -8.0471    4.1351  -12.8390 N   0  0  0  0  0  0  0  0  0  0  0  0
   -8.2060    4.1141  -11.4482 C   0  0  0  0  0  0  0  0  0  0  0  0
   -7.8340    5.2407  -10.6810 C   0  0  0  0  0  0  0  0  0  0  0  0
   -7.9316    5.2391   -9.2849 C   0  0  0  0  0  0  0  0  0  0  0  0
   -8.4091    4.0929   -8.6874 C   0  0  0  0  0  0  0  0  0  0  0  0
   -8.8023    2.9919   -9.4271 C   0  0  0  0  0  0  0  0  0  0  0  0
   -8.7075    2.9685  -10.8128 C   0  0  0  0  0  0  0  0  0  0  0  0
   -9.3042    2.0016   -8.4679 C   0  0  0  0  0  0  0  0  0  0  0  0
   -9.8442    0.9530   -8.7490 O   0  0  0  0  0  0  0  0  0  0  0  0
   -9.1201    2.5280   -7.2251 N   0  0  0  0  0  0  0  0  0  0  0  0
   -8.6099    3.7851   -7.2713 C   0  0  0  0  0  0  0  0  0  0  0  0
   -8.3689    4.5481   -6.3545 O   0  0  0  0  0  0  0  0  0  0  0  0
   -6.1546    5.0963  -15.8406 C   0  0  0  0  0  0  0  0  0  0  0  0
   -6.0088    4.8355  -17.2070 C   0  0  0  0  0  0  0  0  0  0  0  0
   -4.4788    5.2022  -17.9300 Cl  0  0  0  0  0  0  0  0  0  0  0  0
  1  2  3  0
  2  3  1  0
  3  4  2  0
  4  5  1  0
  4  6  1  0
  6  7  2  0
  7  8  1  0
  8  9  2  0
  8 10  1  0
 10 11  1  0
 11 12  2  0
 12 13  1  0
 13 14  2  0
 14 15  1  0
 15 16  2  0
 15 17  1  0
 17 18  2  0
 17 19  1  0
 19 20  1  0
 20 21  2  0
  7 22  1  0
 22 23  2  0
 23 24  1  0
 23  3  1  0
 16 11  1  0
 20 14  1  0
M  END
>  <name>  (158) 
P105279

>  <alias>  (158) 
None

>  <smina_score_min>  (158) 
-8.878

>  <exports>  (158) 
['/opt/xchem-fragalysis-2/maxwin/BulkDock/OUTPUTS/openbind_xx01zvns2b_c2_elabs_1LOUTNY.sdf', '/opt/xchem-fragalysis-2/maxwin/BulkDock/OUTPUTS/openbind_xx01zvns2b_c2_elabs_1LSYIIV.sdf']

>  <tags>  (158) 
syndirella_placed,openbind_xx01zvns2b_c2_elabs,openbind_xx01zvns2b_c2_elabs_scored_6.2plus,syndirella_product,openbind_xx01zvns2b_c2_elabs_scored,openbind_xx01zvns2b_c2_elabs_scored_top80percent,BulkDock Fragalysis export

>  <subsites>  (158) 
1 - Z4590/B/203/1

>  <smiles>  (158) 
N#Cc1c(Cl)cc(C(=O)Nc2ccc3c(c2)C(=O)NC3=O)cc1Cl

>  <HIPPO Pose ID>  (158) 
105279

>  <energy_score>  (158) 
-22.80769

>  <inchikey>  (158) 
YIHQZBSVUJTBEV-UHFFFAOYSA-N

>  <gnina_score_min>  (158) 
6.284

>  <gnina_score>  (158) 
6.183

>  <ref_mols>  (158) 
Z3473a

>  <HIPPO Compound ID>  (158) 
166267

>  <distance_score>  (158) 
0.378437

>  <rmsd(smina/fragmenstein)>  (158) 
0.388

>  <ref_pdb>  (158) 
Z3473a

>  <inspiration_score>  (158) 
None

$$$$
P105280
     RDKit          3D

 24 26  0  0  0  0  0  0  0  0999 V2000
   -9.9034    2.0863   -6.3054 C   0  0  0  0  0  0  0  0  0  0  0  0
   -9.2299    2.6832   -7.4282 N   0  0  0  0  0  0  0  0  0  0  0  0
   -9.1129    1.9908   -8.7001 C   0  0  0  0  0  0  0  0  0  0  0  0
   -8.6519    3.0771   -9.6156 C   0  0  0  0  0  0  0  0  0  0  0  0
   -8.4485    3.0622  -10.9877 C   0  0  0  0  0  0  0  0  0  0  0  0
   -8.0560    4.2539  -11.6144 C   0  0  0  0  0  0  0  0  0  0  0  0
   -7.8740    4.2631  -12.9972 N   0  0  0  0  0  0  0  0  0  0  0  0
   -7.4042    5.3945  -13.9408 C   0  0  0  0  0  0  0  0  0  0  0  0
   -7.1701    6.5166  -13.7190 O   0  0  0  0  0  0  0  0  0  0  0  0
   -7.2744    4.9364  -15.3422 C   0  0  0  0  0  0  0  0  0  0  0  0
   -6.0784    5.1958  -16.0149 C   0  0  0  0  0  0  0  0  0  0  0  0
   -5.9596    4.8801  -17.3705 C   0  0  0  0  0  0  0  0  0  0  0  0
   -4.4419    5.2136  -18.1338 Cl  0  0  0  0  0  0  0  0  0  0  0  0
   -7.0395    4.3250  -18.0685 C   0  0  0  0  0  0  0  0  0  0  0  0
   -6.9095    3.9550  -19.4458 C   0  0  0  0  0  0  0  0  0  0  0  0
   -6.7701    3.5891  -20.5388 N   0  0  0  0  0  0  0  0  0  0  0  0
   -8.2389    4.0942  -17.3816 C   0  0  0  0  0  0  0  0  0  0  0  0
   -9.6309    3.4732  -18.1816 Cl  0  0  0  0  0  0  0  0  0  0  0  0
   -8.3583    4.3836  -16.0189 C   0  0  0  0  0  0  0  0  0  0  0  0
   -7.8633    5.4270  -10.8591 C   0  0  0  0  0  0  0  0  0  0  0  0
   -8.0786    5.4370   -9.4791 C   0  0  0  0  0  0  0  0  0  0  0  0
   -8.4719    4.2534   -8.8904 C   0  0  0  0  0  0  0  0  0  0  0  0
   -8.8632    4.0097   -7.4971 C   0  0  0  0  0  0  0  0  0  0  0  0
   -8.9017    4.8679   -6.6338 O   0  0  0  0  0  0  0  0  0  0  0  0
  1  2  1  0
  2  3  1  0
  3  4  1  0
  4  5  2  0
  5  6  1  0
  6  7  1  0
  7  8  1  0
  8  9  2  0
  8 10  1  0
 10 11  2  0
 11 12  1  0
 12 13  1  0
 12 14  2  0
 14 15  1  0
 15 16  3  0
 14 17  1  0
 17 18  1  0
 17 19  2  0
  6 20  2  0
 20 21  1  0
 21 22  2  0
 22 23  1  0
 23 24  2  0
 23  2  1  0
 22  4  1  0
 19 10  1  0
M  END
>  <name>  (159) 
P105280

>  <alias>  (159) 
None

>  <smina_score_min>  (159) 
-8.988

>  <exports>  (159) 
['/opt/xchem-fragalysis-2/maxwin/BulkDock/OUTPUTS/openbind_xx01zvns2b_c2_elabs_1LOUTNY.sdf', '/opt/xchem-fragalysis-2/maxwin/BulkDock/OUTPUTS/openbind_xx01zvns2b_c2_elabs_1LSYIIV.sdf']

>  <tags>  (159) 
syndirella_placed,openbind_xx01zvns2b_c2_elabs,openbind_xx01zvns2b_c2_elabs_scored_6.2plus,syndirella_product,openbind_xx01zvns2b_c2_elabs_scored,openbind_xx01zvns2b_c2_elabs_scored_top80percent,BulkDock Fragalysis export

>  <subsites>  (159) 
1 - Z4590/B/203/1

>  <smiles>  (159) 
CN1Cc2cc(NC(=O)c3cc(Cl)c(C#N)c(Cl)c3)ccc2C1=O

>  <HIPPO Pose ID>  (159) 
105280

>  <energy_score>  (159) 
-14.510815

>  <inchikey>  (159) 
JDEWYAJWNCAZOS-UHFFFAOYSA-N

>  <gnina_score_min>  (159) 
6.332

>  <gnina_score>  (159) 
6.216

>  <ref_mols>  (159) 
Z3473a

>  <HIPPO Compound ID>  (159) 
166268

>  <distance_score>  (159) 
0.476419

>  <rmsd(smina/fragmenstein)>  (159) 
0.335

>  <ref_pdb>  (159) 
Z3473a

>  <inspiration_score>  (159) 
None

$$$$
P105281
     RDKit          3D

 24 26  0  0  0  0  0  0  0  0999 V2000
   -6.7402    3.6240  -20.4587 N   0  0  0  0  0  0  0  0  0  0  0  0
   -6.9137    3.9670  -19.3620 C   0  0  0  0  0  0  0  0  0  0  0  0
   -7.0707    4.3036  -17.9763 C   0  0  0  0  0  0  0  0  0  0  0  0
   -6.0044    4.8380  -17.2447 C   0  0  0  0  0  0  0  0  0  0  0  0
   -4.4759    5.1976  -17.9749 Cl  0  0  0  0  0  0  0  0  0  0  0  0
   -6.1481    5.1142  -15.8820 C   0  0  0  0  0  0  0  0  0  0  0  0
   -7.3554    4.8394  -15.2282 C   0  0  0  0  0  0  0  0  0  0  0  0
   -7.4990    5.3012  -13.8257 C   0  0  0  0  0  0  0  0  0  0  0  0
   -7.1954    6.4104  -13.6168 O   0  0  0  0  0  0  0  0  0  0  0  0
   -8.0185    4.2025  -12.8618 N   0  0  0  0  0  0  0  0  0  0  0  0
   -8.1769    4.2139  -11.4630 C   0  0  0  0  0  0  0  0  0  0  0  0
   -8.6963    3.0671  -10.8418 C   0  0  0  0  0  0  0  0  0  0  0  0
   -8.8277    3.0763   -9.4573 C   0  0  0  0  0  0  0  0  0  0  0  0
   -8.4415    4.1590   -8.6693 C   0  0  0  0  0  0  0  0  0  0  0  0
   -7.9386    5.2967   -9.2622 C   0  0  0  0  0  0  0  0  0  0  0  0
   -7.8136    5.3162  -10.6554 C   0  0  0  0  0  0  0  0  0  0  0  0
   -7.3036    6.4349  -11.1832 F   0  0  0  0  0  0  0  0  0  0  0  0
   -8.6593    3.8545   -7.2268 C   0  0  0  0  0  0  0  0  0  0  0  0
   -9.2875    2.5655   -7.2691 N   0  0  0  0  0  0  0  0  0  0  0  0
   -9.3712    2.0564   -8.5476 C   0  0  0  0  0  0  0  0  0  0  0  0
   -9.8410    0.9851   -8.8611 O   0  0  0  0  0  0  0  0  0  0  0  0
   -8.4247    4.3063  -15.9403 C   0  0  0  0  0  0  0  0  0  0  0  0
   -8.2806    4.0568  -17.3120 C   0  0  0  0  0  0  0  0  0  0  0  0
   -9.6592    3.4696  -18.1601 Cl  0  0  0  0  0  0  0  0  0  0  0  0
  1  2  3  0
  2  3  1  0
  3  4  2  0
  4  5  1  0
  4  6  1  0
  6  7  2  0
  7  8  1  0
  8  9  2  0
  8 10  1  0
 10 11  1  0
 11 12  2  0
 12 13  1  0
 13 14  2  0
 14 15  1  0
 15 16  2  0
 16 17  1  0
 14 18  1  0
 18 19  1  0
 19 20  1  0
 20 21  2  0
  7 22  1  0
 22 23  2  0
 23 24  1  0
 23  3  1  0
 16 11  1  0
 20 13  1  0
M  END
>  <name>  (160) 
P105281

>  <alias>  (160) 
None

>  <smina_score_min>  (160) 
-8.552

>  <exports>  (160) 
['/opt/xchem-fragalysis-2/maxwin/BulkDock/OUTPUTS/openbind_xx01zvns2b_c2_elabs_1LOUTNY.sdf', '/opt/xchem-fragalysis-2/maxwin/BulkDock/OUTPUTS/openbind_xx01zvns2b_c2_elabs_1LSYIIV.sdf']

>  <tags>  (160) 
syndirella_placed,openbind_xx01zvns2b_c2_elabs,openbind_xx01zvns2b_c2_elabs_scored_6.2plus,syndirella_product,openbind_xx01zvns2b_c2_elabs_scored,openbind_xx01zvns2b_c2_elabs_scored_top80percent,BulkDock Fragalysis export

>  <subsites>  (160) 
1 - Z4590/B/203/1

>  <smiles>  (160) 
N#Cc1c(Cl)cc(C(=O)Nc2cc3c(cc2F)CNC3=O)cc1Cl

>  <HIPPO Pose ID>  (160) 
105281

>  <energy_score>  (160) 
-11.303179

>  <inchikey>  (160) 
RKEGQGNUJZHCAY-UHFFFAOYSA-N

>  <gnina_score_min>  (160) 
6.28

>  <gnina_score>  (160) 
6.337

>  <ref_mols>  (160) 
Z3473a

>  <HIPPO Compound ID>  (160) 
166269

>  <distance_score>  (160) 
0.421031

>  <rmsd(smina/fragmenstein)>  (160) 
0.598

>  <ref_pdb>  (160) 
Z3473a

>  <inspiration_score>  (160) 
None

$$$$
P105283
     RDKit          3D

 24 26  0  0  0  0  0  0  0  0999 V2000
  -10.7113    1.8758   -5.8779 C   0  0  0  0  0  0  0  0  0  0  0  0
   -9.3552    2.4611   -6.2025 C   0  0  0  0  0  0  0  0  0  0  0  0
   -9.4123    3.1946   -7.4496 N   0  0  0  0  0  0  0  0  0  0  0  0
   -8.4556    4.3011   -7.4940 C   0  0  0  0  0  0  0  0  0  0  0  0
   -8.2409    4.5091   -8.9518 C   0  0  0  0  0  0  0  0  0  0  0  0
   -7.7432    5.6181   -9.5971 C   0  0  0  0  0  0  0  0  0  0  0  0
   -7.6382    5.5631  -10.9828 C   0  0  0  0  0  0  0  0  0  0  0  0
   -8.0132    4.4103  -11.6961 C   0  0  0  0  0  0  0  0  0  0  0  0
   -7.8696    4.3838  -13.0799 N   0  0  0  0  0  0  0  0  0  0  0  0
   -7.3319    5.4567  -14.0541 C   0  0  0  0  0  0  0  0  0  0  0  0
   -6.9974    6.5582  -13.8576 O   0  0  0  0  0  0  0  0  0  0  0  0
   -7.2410    4.9657  -15.4423 C   0  0  0  0  0  0  0  0  0  0  0  0
   -6.0486    5.1958  -16.1329 C   0  0  0  0  0  0  0  0  0  0  0  0
   -5.9524    4.8590  -17.4811 C   0  0  0  0  0  0  0  0  0  0  0  0
   -4.4439    5.1678  -18.2726 Cl  0  0  0  0  0  0  0  0  0  0  0  0
   -7.0500    4.3053  -18.1497 C   0  0  0  0  0  0  0  0  0  0  0  0
   -6.9401    3.9139  -19.5192 C   0  0  0  0  0  0  0  0  0  0  0  0
   -6.8077    3.5351  -20.6078 N   0  0  0  0  0  0  0  0  0  0  0  0
   -8.2434    4.0987  -17.4450 C   0  0  0  0  0  0  0  0  0  0  0  0
   -9.6518    3.4789  -18.2141 Cl  0  0  0  0  0  0  0  0  0  0  0  0
   -8.3425    4.4151  -16.0891 C   0  0  0  0  0  0  0  0  0  0  0  0
   -8.5155    3.2889  -11.0260 C   0  0  0  0  0  0  0  0  0  0  0  0
   -8.6355    3.3632   -9.6480 C   0  0  0  0  0  0  0  0  0  0  0  0
   -9.1686    2.3679   -8.6580 C   0  0  0  0  0  0  0  0  0  0  0  0
  1  2  1  0
  2  3  1  0
  3  4  1  0
  4  5  1  0
  5  6  2  0
  6  7  1  0
  7  8  2  0
  8  9  1  0
  9 10  1  0
 10 11  2  0
 10 12  1  0
 12 13  2  0
 13 14  1  0
 14 15  1  0
 14 16  2  0
 16 17  1  0
 17 18  3  0
 16 19  1  0
 19 20  1  0
 19 21  2  0
  8 22  1  0
 22 23  2  0
 23 24  1  0
 24  3  1  0
 23  5  1  0
 21 12  1  0
M  END
>  <name>  (161) 
P105283

>  <alias>  (161) 
None

>  <smina_score_min>  (161) 
-8.469

>  <exports>  (161) 
['/opt/xchem-fragalysis-2/maxwin/BulkDock/OUTPUTS/openbind_xx01zvns2b_c2_elabs_1LOUTNY.sdf', '/opt/xchem-fragalysis-2/maxwin/BulkDock/OUTPUTS/openbind_xx01zvns2b_c2_elabs_1LSYIIV.sdf']

>  <tags>  (161) 
syndirella_placed,openbind_xx01zvns2b_c2_elabs,openbind_xx01zvns2b_c2_elabs_scored_6.2plus,syndirella_product,openbind_xx01zvns2b_c2_elabs_scored,openbind_xx01zvns2b_c2_elabs_scored_top80percent,BulkDock Fragalysis export

>  <subsites>  (161) 
1 - Z4590/B/203/1

>  <smiles>  (161) 
CCN1Cc2ccc(NC(=O)c3cc(Cl)c(C#N)c(Cl)c3)cc2C1

>  <HIPPO Pose ID>  (161) 
105283

>  <energy_score>  (161) 
-19.386201

>  <inchikey>  (161) 
NQJTVJGKVZTKRK-UHFFFAOYSA-N

>  <gnina_score_min>  (161) 
6.317

>  <gnina_score>  (161) 
6.19

>  <ref_mols>  (161) 
Z3473a

>  <HIPPO Compound ID>  (161) 
166274

>  <distance_score>  (161) 
0.648624

>  <rmsd(smina/fragmenstein)>  (161) 
0.377

>  <ref_pdb>  (161) 
Z3473a

>  <inspiration_score>  (161) 
None

$$$$
P105293
     RDKit          3D

 25 27  0  0  0  0  0  0  0  0999 V2000
  -10.7584    2.1797   -5.8555 C   0  0  0  0  0  0  0  0  0  0  0  0
   -9.3010    2.2186   -6.2469 C   0  0  0  0  0  0  0  0  0  0  0  0
   -9.0779    2.8785   -7.5018 N   0  0  0  0  0  0  0  0  0  0  0  0
   -9.0322    2.1581   -8.7640 C   0  0  0  0  0  0  0  0  0  0  0  0
   -8.6327    3.2371   -9.7161 C   0  0  0  0  0  0  0  0  0  0  0  0
   -8.4249    3.1906  -11.0840 C   0  0  0  0  0  0  0  0  0  0  0  0
   -8.0253    4.3707  -11.7273 C   0  0  0  0  0  0  0  0  0  0  0  0
   -7.7623    4.3422  -13.0933 N   0  0  0  0  0  0  0  0  0  0  0  0
   -7.3523    5.4750  -14.0596 C   0  0  0  0  0  0  0  0  0  0  0  0
   -7.0960    6.5937  -13.8485 O   0  0  0  0  0  0  0  0  0  0  0  0
   -7.2455    4.9974  -15.4505 C   0  0  0  0  0  0  0  0  0  0  0  0
   -8.3400    4.4312  -16.0961 C   0  0  0  0  0  0  0  0  0  0  0  0
   -8.2351    4.1085  -17.4495 C   0  0  0  0  0  0  0  0  0  0  0  0
   -9.6356    3.4687  -18.2164 Cl  0  0  0  0  0  0  0  0  0  0  0  0
   -7.0413    4.3219  -18.1512 C   0  0  0  0  0  0  0  0  0  0  0  0
   -6.9258    3.9247  -19.5188 C   0  0  0  0  0  0  0  0  0  0  0  0
   -6.7923    3.5418  -20.6058 N   0  0  0  0  0  0  0  0  0  0  0  0
   -5.9500    4.8884  -17.4814 C   0  0  0  0  0  0  0  0  0  0  0  0
   -4.4395    5.1974  -18.2684 Cl  0  0  0  0  0  0  0  0  0  0  0  0
   -6.0530    5.2352  -16.1355 C   0  0  0  0  0  0  0  0  0  0  0  0
   -7.8580    5.5678  -11.0036 C   0  0  0  0  0  0  0  0  0  0  0  0
   -8.0803    5.6112   -9.6305 C   0  0  0  0  0  0  0  0  0  0  0  0
   -8.4580    4.4354   -9.0224 C   0  0  0  0  0  0  0  0  0  0  0  0
   -8.7387    4.2063   -7.6075 C   0  0  0  0  0  0  0  0  0  0  0  0
   -8.6673    5.0566   -6.7393 O   0  0  0  0  0  0  0  0  0  0  0  0
  1  2  1  0
  2  3  1  0
  3  4  1  0
  4  5  1  0
  5  6  2  0
  6  7  1  0
  7  8  1  0
  8  9  1  0
  9 10  2  0
  9 11  1  0
 11 12  2  0
 12 13  1  0
 13 14  1  0
 13 15  2  0
 15 16  1  0
 16 17  3  0
 15 18  1  0
 18 19  1  0
 18 20  2  0
  7 21  2  0
 21 22  1  0
 22 23  2  0
 23 24  1  0
 24 25  2  0
 24  3  1  0
 23  5  1  0
 20 11  1  0
M  END
>  <name>  (162) 
P105293

>  <alias>  (162) 
None

>  <smina_score_min>  (162) 
-8.726

>  <exports>  (162) 
['/opt/xchem-fragalysis-2/maxwin/BulkDock/OUTPUTS/openbind_xx01zvns2b_c2_elabs_1LOUTNY.sdf', '/opt/xchem-fragalysis-2/maxwin/BulkDock/OUTPUTS/openbind_xx01zvns2b_c2_elabs_1LSYIIV.sdf']

>  <tags>  (162) 
syndirella_placed,openbind_xx01zvns2b_c2_elabs,openbind_xx01zvns2b_c2_elabs_scored_6.2plus,syndirella_product,openbind_xx01zvns2b_c2_elabs_scored,openbind_xx01zvns2b_c2_elabs_scored_top80percent,BulkDock Fragalysis export

>  <subsites>  (162) 
1 - Z4590/B/203/1

>  <smiles>  (162) 
CCN1Cc2cc(NC(=O)c3cc(Cl)c(C#N)c(Cl)c3)ccc2C1=O

>  <HIPPO Pose ID>  (162) 
105293

>  <energy_score>  (162) 
-19.885567

>  <inchikey>  (162) 
HHTPQXAGNHPNJI-UHFFFAOYSA-N

>  <gnina_score_min>  (162) 
6.354

>  <gnina_score>  (162) 
6.21

>  <ref_mols>  (162) 
Z3473a

>  <HIPPO Compound ID>  (162) 
166294

>  <distance_score>  (162) 
0.580392

>  <rmsd(smina/fragmenstein)>  (162) 
0.397

>  <ref_pdb>  (162) 
Z3473a

>  <inspiration_score>  (162) 
None

$$$$
P105294
     RDKit          3D

 25 27  0  0  0  0  0  0  0  0999 V2000
   -9.9472    2.5393   -6.1694 C   0  0  0  0  0  0  0  0  0  0  0  0
   -8.8712    2.9118   -7.0674 N   0  0  0  0  0  0  0  0  0  0  0  0
   -9.0330    2.3013   -8.4091 C   0  0  0  0  0  0  0  0  0  0  0  0
   -8.6970    3.3791   -9.3893 C   0  0  0  0  0  0  0  0  0  0  0  0
   -8.5824    3.2911  -10.7765 C   0  0  0  0  0  0  0  0  0  0  0  0
   -8.2251    4.4404  -11.4893 C   0  0  0  0  0  0  0  0  0  0  0  0
   -8.0334    4.3734  -12.8735 N   0  0  0  0  0  0  0  0  0  0  0  0
   -7.5573    5.4533  -13.8763 C   0  0  0  0  0  0  0  0  0  0  0  0
   -7.3253    6.5872  -13.7149 O   0  0  0  0  0  0  0  0  0  0  0  0
   -7.3777    4.9315  -15.2535 C   0  0  0  0  0  0  0  0  0  0  0  0
   -8.4343    4.3606  -15.9554 C   0  0  0  0  0  0  0  0  0  0  0  0
   -8.2795    4.0734  -17.3180 C   0  0  0  0  0  0  0  0  0  0  0  0
   -9.6498    3.4535  -18.1563 Cl  0  0  0  0  0  0  0  0  0  0  0  0
   -7.0688    4.3159  -17.9818 C   0  0  0  0  0  0  0  0  0  0  0  0
   -6.9123    3.9641  -19.3637 C   0  0  0  0  0  0  0  0  0  0  0  0
   -6.7575    3.6170  -20.4615 N   0  0  0  0  0  0  0  0  0  0  0  0
   -6.0104    4.8749  -17.2563 C   0  0  0  0  0  0  0  0  0  0  0  0
   -4.4791    5.2249  -17.9838 Cl  0  0  0  0  0  0  0  0  0  0  0  0
   -6.1665    5.1926  -15.9031 C   0  0  0  0  0  0  0  0  0  0  0  0
   -8.0284    5.6497  -10.8026 C   0  0  0  0  0  0  0  0  0  0  0  0
   -8.1582    5.7257   -9.4107 C   0  0  0  0  0  0  0  0  0  0  0  0
   -8.4794    4.5771   -8.7074 C   0  0  0  0  0  0  0  0  0  0  0  0
   -8.5176    4.3443   -7.2118 C   0  0  0  0  0  0  0  0  0  0  0  0
   -9.3916    5.3353   -6.4212 C   0  0  0  0  0  0  0  0  0  0  0  0
   -7.0808    4.5547   -6.6822 C   0  0  0  0  0  0  0  0  0  0  0  0
  1  2  1  0
  2  3  1  0
  3  4  1  0
  4  5  2  0
  5  6  1  0
  6  7  1  0
  7  8  1  0
  8  9  2  0
  8 10  1  0
 10 11  2  0
 11 12  1  0
 12 13  1  0
 12 14  2  0
 14 15  1  0
 15 16  3  0
 14 17  1  0
 17 18  1  0
 17 19  2  0
  6 20  2  0
 20 21  1  0
 21 22  2  0
 22 23  1  0
 23 24  1  0
 23 25  1  0
 23  2  1  0
 22  4  1  0
 19 10  1  0
M  END
>  <name>  (163) 
P105294

>  <alias>  (163) 
None

>  <smina_score_min>  (163) 
-8.49

>  <exports>  (163) 
['/opt/xchem-fragalysis-2/maxwin/BulkDock/OUTPUTS/openbind_xx01zvns2b_c2_elabs_1LOUTNY.sdf', '/opt/xchem-fragalysis-2/maxwin/BulkDock/OUTPUTS/openbind_xx01zvns2b_c2_elabs_1LSYIIV.sdf']

>  <tags>  (163) 
syndirella_placed,openbind_xx01zvns2b_c2_elabs,openbind_xx01zvns2b_c2_elabs_scored_6.2plus,syndirella_product,openbind_xx01zvns2b_c2_elabs_scored,openbind_xx01zvns2b_c2_elabs_scored_top80percent,BulkDock Fragalysis export

>  <subsites>  (163) 
1 - Z4590/B/203/1

>  <smiles>  (163) 
CN1Cc2cc(NC(=O)c3cc(Cl)c(C#N)c(Cl)c3)ccc2C1(C)C

>  <HIPPO Pose ID>  (163) 
105294

>  <energy_score>  (163) 
-25.476362

>  <inchikey>  (163) 
CAKNVNOCJKAJCK-UHFFFAOYSA-N

>  <gnina_score_min>  (163) 
6.342

>  <gnina_score>  (163) 
6.289

>  <ref_mols>  (163) 
Z3473a

>  <HIPPO Compound ID>  (163) 
166296

>  <distance_score>  (163) 
0.569939

>  <rmsd(smina/fragmenstein)>  (163) 
0.459

>  <ref_pdb>  (163) 
Z3473a

>  <inspiration_score>  (163) 
None

$$$$
P105295
     RDKit          3D

 25 27  0  0  0  0  0  0  0  0999 V2000
   -9.7706    3.7341   -4.6617 C   0  0  0  0  0  0  0  0  0  0  0  0
  -10.4727    2.6170   -5.4206 C   0  0  0  0  0  0  0  0  0  0  0  0
   -9.6592    1.9763   -6.5505 C   0  0  0  0  0  0  0  0  0  0  0  0
   -9.5861    2.7989   -7.7433 N   0  0  0  0  0  0  0  0  0  0  0  0
   -8.7349    3.9907   -7.6388 C   0  0  0  0  0  0  0  0  0  0  0  0
   -8.3583    4.2723   -9.0548 C   0  0  0  0  0  0  0  0  0  0  0  0
   -7.8972    5.4427   -9.6187 C   0  0  0  0  0  0  0  0  0  0  0  0
   -7.6719    5.4530  -10.9939 C   0  0  0  0  0  0  0  0  0  0  0  0
   -7.8997    4.3039  -11.7706 C   0  0  0  0  0  0  0  0  0  0  0  0
   -7.6732    4.3199  -13.1412 N   0  0  0  0  0  0  0  0  0  0  0  0
   -7.1555    5.4479  -14.0586 C   0  0  0  0  0  0  0  0  0  0  0  0
   -6.7650    6.5159  -13.7976 O   0  0  0  0  0  0  0  0  0  0  0  0
   -7.1226    5.0192  -15.4717 C   0  0  0  0  0  0  0  0  0  0  0  0
   -5.9508    5.2456  -16.1941 C   0  0  0  0  0  0  0  0  0  0  0  0
   -5.8943    4.8996  -17.5420 C   0  0  0  0  0  0  0  0  0  0  0  0
   -4.4032    5.1879  -18.3735 Cl  0  0  0  0  0  0  0  0  0  0  0  0
   -7.0111    4.3420  -18.1766 C   0  0  0  0  0  0  0  0  0  0  0  0
   -6.9317    3.9261  -19.5402 C   0  0  0  0  0  0  0  0  0  0  0  0
   -6.8196    3.5255  -20.6230 N   0  0  0  0  0  0  0  0  0  0  0  0
   -8.1882    4.1473  -17.4425 C   0  0  0  0  0  0  0  0  0  0  0  0
   -9.6158    3.5162  -18.1691 Cl  0  0  0  0  0  0  0  0  0  0  0  0
   -8.2476    4.4741  -16.0873 C   0  0  0  0  0  0  0  0  0  0  0  0
   -8.3566    3.1217  -11.1813 C   0  0  0  0  0  0  0  0  0  0  0  0
   -8.5859    3.1281   -9.8198 C   0  0  0  0  0  0  0  0  0  0  0  0
   -9.1052    2.0488   -8.9230 C   0  0  0  0  0  0  0  0  0  0  0  0
  1  2  1  0
  2  3  1  0
  3  4  1  0
  4  5  1  0
  5  6  1  0
  6  7  2  0
  7  8  1  0
  8  9  2  0
  9 10  1  0
 10 11  1  0
 11 12  2  0
 11 13  1  0
 13 14  2  0
 14 15  1  0
 15 16  1  0
 15 17  2  0
 17 18  1  0
 18 19  3  0
 17 20  1  0
 20 21  1  0
 20 22  2  0
  9 23  1  0
 23 24  2  0
 24 25  1  0
 25  4  1  0
 24  6  1  0
 22 13  1  0
M  END
>  <name>  (164) 
P105295

>  <alias>  (164) 
None

>  <smina_score_min>  (164) 
-8.844

>  <exports>  (164) 
['/opt/xchem-fragalysis-2/maxwin/BulkDock/OUTPUTS/openbind_xx01zvns2b_c2_elabs_1LOUTNY.sdf', '/opt/xchem-fragalysis-2/maxwin/BulkDock/OUTPUTS/openbind_xx01zvns2b_c2_elabs_1LSYIIV.sdf']

>  <tags>  (164) 
syndirella_placed,openbind_xx01zvns2b_c2_elabs,openbind_xx01zvns2b_c2_elabs_scored_6.2plus,syndirella_product,openbind_xx01zvns2b_c2_elabs_scored,openbind_xx01zvns2b_c2_elabs_scored_top80percent,BulkDock Fragalysis export

>  <subsites>  (164) 
1 - Z4590/B/203/1

>  <smiles>  (164) 
CCCN1Cc2ccc(NC(=O)c3cc(Cl)c(C#N)c(Cl)c3)cc2C1

>  <HIPPO Pose ID>  (164) 
105295

>  <energy_score>  (164) 
-29.757182

>  <inchikey>  (164) 
OAOVCAMJVWASGM-UHFFFAOYSA-N

>  <gnina_score_min>  (164) 
6.369

>  <gnina_score>  (164) 
6.235

>  <ref_mols>  (164) 
Z3473a

>  <HIPPO Compound ID>  (164) 
166297

>  <distance_score>  (164) 
0.606841

>  <rmsd(smina/fragmenstein)>  (164) 
0.331

>  <ref_pdb>  (164) 
Z3473a

>  <inspiration_score>  (164) 
None

$$$$
P105299
     RDKit          3D

 26 28  0  0  0  0  0  0  0  0999 V2000
   -6.7662    3.5815  -20.5580 N   0  0  0  0  0  0  0  0  0  0  0  0
   -6.9118    3.9465  -19.4657 C   0  0  0  0  0  0  0  0  0  0  0  0
   -7.0501    4.3183  -18.0905 C   0  0  0  0  0  0  0  0  0  0  0  0
   -5.9756    4.8798  -17.3892 C   0  0  0  0  0  0  0  0  0  0  0  0
   -4.4549    5.2154  -18.1453 Cl  0  0  0  0  0  0  0  0  0  0  0  0
   -6.1044    5.2018  -16.0370 C   0  0  0  0  0  0  0  0  0  0  0  0
   -7.3051    4.9419  -15.3733 C   0  0  0  0  0  0  0  0  0  0  0  0
   -7.4501    5.4084  -13.9789 C   0  0  0  0  0  0  0  0  0  0  0  0
   -7.2391    6.5364  -13.7640 O   0  0  0  0  0  0  0  0  0  0  0  0
   -7.8907    4.2724  -13.0278 N   0  0  0  0  0  0  0  0  0  0  0  0
   -8.0655    4.2662  -11.6454 C   0  0  0  0  0  0  0  0  0  0  0  0
   -7.8885    5.4439  -10.9014 C   0  0  0  0  0  0  0  0  0  0  0  0
   -8.0546    5.4468   -9.5167 C   0  0  0  0  0  0  0  0  0  0  0  0
   -8.3878    4.2572   -8.8982 C   0  0  0  0  0  0  0  0  0  0  0  0
   -8.5593    3.0853   -9.6235 C   0  0  0  0  0  0  0  0  0  0  0  0
   -8.4086    3.0710  -11.0028 C   0  0  0  0  0  0  0  0  0  0  0  0
   -8.9123    1.9701   -8.6904 C   0  0  0  0  0  0  0  0  0  0  0  0
   -8.9641    2.5749   -7.3313 N   0  0  0  0  0  0  0  0  0  0  0  0
  -10.2313    2.2768   -6.6591 C   0  0  0  0  0  0  0  0  0  0  0  0
  -10.4621    2.8623   -5.2671 C   0  0  0  0  0  0  0  0  0  0  0  0
  -10.5593    4.2218   -5.3199 F   0  0  0  0  0  0  0  0  0  0  0  0
  -11.6697    2.4395   -4.8029 F   0  0  0  0  0  0  0  0  0  0  0  0
   -8.6539    4.0081   -7.4538 C   0  0  0  0  0  0  0  0  0  0  0  0
   -8.3821    4.3798  -16.0515 C   0  0  0  0  0  0  0  0  0  0  0  0
   -8.2528    4.0850  -17.4106 C   0  0  0  0  0  0  0  0  0  0  0  0
   -9.6377    3.4558  -18.2145 Cl  0  0  0  0  0  0  0  0  0  0  0  0
  1  2  3  0
  2  3  1  0
  3  4  2  0
  4  5  1  0
  4  6  1  0
  6  7  2  0
  7  8  1  0
  8  9  2  0
  8 10  1  0
 10 11  1  0
 11 12  2  0
 12 13  1  0
 13 14  2  0
 14 15  1  0
 15 16  2  0
 15 17  1  0
 17 18  1  0
 18 19  1  0
 19 20  1  0
 20 21  1  0
 20 22  1  0
 18 23  1  0
  7 24  1  0
 24 25  2  0
 25 26  1  0
 25  3  1  0
 16 11  1  0
 23 14  1  0
M  END
>  <name>  (165) 
P105299

>  <alias>  (165) 
None

>  <smina_score_min>  (165) 
-8.83

>  <exports>  (165) 
['/opt/xchem-fragalysis-2/maxwin/BulkDock/OUTPUTS/openbind_xx01zvns2b_c2_elabs_1LOUTNY.sdf', '/opt/xchem-fragalysis-2/maxwin/BulkDock/OUTPUTS/openbind_xx01zvns2b_c2_elabs_1LSYIIV.sdf']

>  <tags>  (165) 
syndirella_placed,openbind_xx01zvns2b_c2_elabs,openbind_xx01zvns2b_c2_elabs_scored_6.2plus,syndirella_product,openbind_xx01zvns2b_c2_elabs_scored,openbind_xx01zvns2b_c2_elabs_scored_top80percent,BulkDock Fragalysis export

>  <subsites>  (165) 
1 - Z4590/B/203/1

>  <smiles>  (165) 
N#Cc1c(Cl)cc(C(=O)Nc2ccc3c(c2)CN(CC(F)F)C3)cc1Cl

>  <HIPPO Pose ID>  (165) 
105299

>  <energy_score>  (165) 
-27.836994

>  <inchikey>  (165) 
FLJLWSDDTUWNRA-UHFFFAOYSA-N

>  <gnina_score_min>  (165) 
6.341

>  <gnina_score>  (165) 
6.145

>  <ref_mols>  (165) 
Z3473a

>  <HIPPO Compound ID>  (165) 
166301

>  <distance_score>  (165) 
0.485923

>  <rmsd(smina/fragmenstein)>  (165) 
0.334

>  <ref_pdb>  (165) 
Z3473a

>  <inspiration_score>  (165) 
None

$$$$
P105308
     RDKit          3D

 27 29  0  0  0  0  0  0  0  0999 V2000
   -9.2521    5.0820   -3.3828 C   0  0  0  0  0  0  0  0  0  0  0  0
   -8.9363    3.8506   -4.2132 C   0  0  0  0  0  0  0  0  0  0  0  0
  -10.0822    3.4643   -5.1590 C   0  0  0  0  0  0  0  0  0  0  0  0
   -9.6469    2.4933   -6.2627 C   0  0  0  0  0  0  0  0  0  0  0  0
   -9.2368    3.1192   -7.5023 N   0  0  0  0  0  0  0  0  0  0  0  0
   -9.1139    2.3251   -8.7221 C   0  0  0  0  0  0  0  0  0  0  0  0
   -8.6203    3.3327   -9.7076 C   0  0  0  0  0  0  0  0  0  0  0  0
   -8.4501    3.2559  -11.0799 C   0  0  0  0  0  0  0  0  0  0  0  0
   -8.0153    4.4101  -11.7501 C   0  0  0  0  0  0  0  0  0  0  0  0
   -7.8541    4.3904  -13.1310 N   0  0  0  0  0  0  0  0  0  0  0  0
   -7.2727    5.4542  -14.0886 C   0  0  0  0  0  0  0  0  0  0  0  0
   -6.9090    6.5433  -13.8786 O   0  0  0  0  0  0  0  0  0  0  0  0
   -7.1895    4.9694  -15.4777 C   0  0  0  0  0  0  0  0  0  0  0  0
   -8.2996    4.4211  -16.1134 C   0  0  0  0  0  0  0  0  0  0  0  0
   -8.2138    4.1029  -17.4683 C   0  0  0  0  0  0  0  0  0  0  0  0
   -9.6283    3.4797  -18.2231 Cl  0  0  0  0  0  0  0  0  0  0  0  0
   -7.0253    4.3076  -18.1808 C   0  0  0  0  0  0  0  0  0  0  0  0
   -6.9219    3.9109  -19.5478 C   0  0  0  0  0  0  0  0  0  0  0  0
   -6.7782    3.5270  -20.6330 N   0  0  0  0  0  0  0  0  0  0  0  0
   -5.9199    4.8605  -17.5233 C   0  0  0  0  0  0  0  0  0  0  0  0
   -4.4166    5.1605  -18.3289 Cl  0  0  0  0  0  0  0  0  0  0  0  0
   -6.0026    5.1988  -16.1758 C   0  0  0  0  0  0  0  0  0  0  0  0
   -7.7497    5.6014  -11.0476 C   0  0  0  0  0  0  0  0  0  0  0  0
   -7.9140    5.6689   -9.6718 C   0  0  0  0  0  0  0  0  0  0  0  0
   -8.3478    4.5251   -9.0425 C   0  0  0  0  0  0  0  0  0  0  0  0
   -8.6790    4.3722   -7.6342 C   0  0  0  0  0  0  0  0  0  0  0  0
   -8.5019    5.2616   -6.8226 O   0  0  0  0  0  0  0  0  0  0  0  0
  1  2  1  0
  2  3  1  0
  3  4  1  0
  4  5  1  0
  5  6  1  0
  6  7  1  0
  7  8  2  0
  8  9  1  0
  9 10  1  0
 10 11  1  0
 11 12  2  0
 11 13  1  0
 13 14  2  0
 14 15  1  0
 15 16  1  0
 15 17  2  0
 17 18  1  0
 18 19  3  0
 17 20  1  0
 20 21  1  0
 20 22  2  0
  9 23  2  0
 23 24  1  0
 24 25  2  0
 25 26  1  0
 26 27  2  0
 26  5  1  0
 25  7  1  0
 22 13  1  0
M  END
>  <name>  (166) 
P105308

>  <alias>  (166) 
None

>  <smina_score_min>  (166) 
-8.479

>  <exports>  (166) 
['/opt/xchem-fragalysis-2/maxwin/BulkDock/OUTPUTS/openbind_xx01zvns2b_c2_elabs_1LOUTNY.sdf', '/opt/xchem-fragalysis-2/maxwin/BulkDock/OUTPUTS/openbind_xx01zvns2b_c2_elabs_1LSYIIV.sdf']

>  <tags>  (166) 
syndirella_placed,openbind_xx01zvns2b_c2_elabs,openbind_xx01zvns2b_c2_elabs_scored_6.2plus,syndirella_product,openbind_xx01zvns2b_c2_elabs_scored,openbind_xx01zvns2b_c2_elabs_scored_top80percent,BulkDock Fragalysis export

>  <subsites>  (166) 
1 - Z4590/B/203/1

>  <smiles>  (166) 
CCCCN1Cc2cc(NC(=O)c3cc(Cl)c(C#N)c(Cl)c3)ccc2C1=O

>  <HIPPO Pose ID>  (166) 
105308

>  <energy_score>  (166) 
-23.855832

>  <inchikey>  (166) 
VUUFTZCQSYVDKL-UHFFFAOYSA-N

>  <gnina_score_min>  (166) 
6.322

>  <gnina_score>  (166) 
6.194

>  <ref_mols>  (166) 
Z3473a

>  <HIPPO Compound ID>  (166) 
166313

>  <distance_score>  (166) 
0.636355

>  <rmsd(smina/fragmenstein)>  (166) 
0.36

>  <ref_pdb>  (166) 
Z3473a

>  <inspiration_score>  (166) 
None

$$$$
P105317
     RDKit          3D

 28 30  0  0  0  0  0  0  0  0999 V2000
   -8.1404    6.3267   -4.5410 C   0  0  0  0  0  0  0  0  0  0  0  0
   -8.2628    5.0877   -3.6717 C   0  0  0  0  0  0  0  0  0  0  0  0
   -8.6370    3.9430   -4.4317 O   0  0  0  0  0  0  0  0  0  0  0  0
  -10.0244    3.9106   -4.7616 C   0  0  0  0  0  0  0  0  0  0  0  0
  -10.4428    2.6014   -5.4237 C   0  0  0  0  0  0  0  0  0  0  0  0
   -9.5372    2.0472   -6.5208 C   0  0  0  0  0  0  0  0  0  0  0  0
   -9.5400    2.8609   -7.7233 N   0  0  0  0  0  0  0  0  0  0  0  0
   -8.6641    4.0420   -7.6423 C   0  0  0  0  0  0  0  0  0  0  0  0
   -8.3318    4.3220   -9.0685 C   0  0  0  0  0  0  0  0  0  0  0  0
   -7.8757    5.4884   -9.6432 C   0  0  0  0  0  0  0  0  0  0  0  0
   -7.6934    5.4978  -11.0235 C   0  0  0  0  0  0  0  0  0  0  0  0
   -7.9598    4.3522  -11.7930 C   0  0  0  0  0  0  0  0  0  0  0  0
   -7.7928    4.3730  -13.1708 N   0  0  0  0  0  0  0  0  0  0  0  0
   -7.2995    5.4983  -14.1034 C   0  0  0  0  0  0  0  0  0  0  0  0
   -7.0290    6.6090  -13.8711 O   0  0  0  0  0  0  0  0  0  0  0  0
   -7.2039    5.0354  -15.4990 C   0  0  0  0  0  0  0  0  0  0  0  0
   -8.3074    4.4761  -16.1382 C   0  0  0  0  0  0  0  0  0  0  0  0
   -8.2095    4.1381  -17.4862 C   0  0  0  0  0  0  0  0  0  0  0  0
   -9.6143    3.4924  -18.2402 Cl  0  0  0  0  0  0  0  0  0  0  0  0
   -7.0151    4.3372  -18.1892 C   0  0  0  0  0  0  0  0  0  0  0  0
   -6.9013    3.9260  -19.5512 C   0  0  0  0  0  0  0  0  0  0  0  0
   -6.7544    3.5334  -20.6329 N   0  0  0  0  0  0  0  0  0  0  0  0
   -5.9164    4.9014  -17.5277 C   0  0  0  0  0  0  0  0  0  0  0  0
   -4.4048    5.1875  -18.3228 Cl  0  0  0  0  0  0  0  0  0  0  0  0
   -6.0110    5.2591  -16.1853 C   0  0  0  0  0  0  0  0  0  0  0  0
   -8.4043    3.1714  -11.1923 C   0  0  0  0  0  0  0  0  0  0  0  0
   -8.5907    3.1790   -9.8253 C   0  0  0  0  0  0  0  0  0  0  0  0
   -9.0878    2.1042   -8.9119 C   0  0  0  0  0  0  0  0  0  0  0  0
  1  2  1  0
  2  3  1  0
  3  4  1  0
  4  5  1  0
  5  6  1  0
  6  7  1  0
  7  8  1  0
  8  9  1  0
  9 10  2  0
 10 11  1  0
 11 12  2  0
 12 13  1  0
 13 14  1  0
 14 15  2  0
 14 16  1  0
 16 17  2  0
 17 18  1  0
 18 19  1  0
 18 20  2  0
 20 21  1  0
 21 22  3  0
 20 23  1  0
 23 24  1  0
 23 25  2  0
 12 26  1  0
 26 27  2  0
 27 28  1  0
 28  7  1  0
 27  9  1  0
 25 16  1  0
M  END
>  <name>  (167) 
P105317

>  <alias>  (167) 
None

>  <smina_score_min>  (167) 
-7.943

>  <exports>  (167) 
['/opt/xchem-fragalysis-2/maxwin/BulkDock/OUTPUTS/openbind_xx01zvns2b_c2_elabs_1LOUTNY.sdf', '/opt/xchem-fragalysis-2/maxwin/BulkDock/OUTPUTS/openbind_xx01zvns2b_c2_elabs_1LSYIIV.sdf']

>  <tags>  (167) 
syndirella_placed,openbind_xx01zvns2b_c2_elabs,openbind_xx01zvns2b_c2_elabs_scored_6.2plus,syndirella_product,openbind_xx01zvns2b_c2_elabs_scored,openbind_xx01zvns2b_c2_elabs_scored_top80percent,BulkDock Fragalysis export

>  <subsites>  (167) 
1 - Z4590/B/203/1

>  <smiles>  (167) 
CCOCCCN1Cc2ccc(NC(=O)c3cc(Cl)c(C#N)c(Cl)c3)cc2C1

>  <HIPPO Pose ID>  (167) 
105317

>  <energy_score>  (167) 
-17.215064

>  <inchikey>  (167) 
AJRYTEHWKGUIGV-UHFFFAOYSA-N

>  <gnina_score_min>  (167) 
6.333

>  <gnina_score>  (167) 
6.171

>  <ref_mols>  (167) 
Z3473a

>  <HIPPO Compound ID>  (167) 
166327

>  <distance_score>  (167) 
0.62887

>  <rmsd(smina/fragmenstein)>  (167) 
0.393

>  <ref_pdb>  (167) 
Z3473a

>  <inspiration_score>  (167) 
None

$$$$
P105323
     RDKit          3D

 30 33  0  0  0  0  0  0  0  0999 V2000
   -6.8121    3.5109  -20.6483 N   0  0  0  0  0  0  0  0  0  0  0  0
   -6.9375    3.8968  -19.5620 C   0  0  0  0  0  0  0  0  0  0  0  0
   -7.0334    4.2960  -18.1962 C   0  0  0  0  0  0  0  0  0  0  0  0
   -5.9279    4.8579  -17.5472 C   0  0  0  0  0  0  0  0  0  0  0  0
   -4.4301    5.1643  -18.3592 Cl  0  0  0  0  0  0  0  0  0  0  0  0
   -6.0083    5.2047  -16.2026 C   0  0  0  0  0  0  0  0  0  0  0  0
   -7.1927    4.9736  -15.5013 C   0  0  0  0  0  0  0  0  0  0  0  0
   -7.2848    5.4851  -14.1258 C   0  0  0  0  0  0  0  0  0  0  0  0
   -6.9596    6.5914  -13.9445 O   0  0  0  0  0  0  0  0  0  0  0  0
   -7.7804    4.4113  -13.1321 N   0  0  0  0  0  0  0  0  0  0  0  0
   -8.0591    4.4990  -11.7741 C   0  0  0  0  0  0  0  0  0  0  0  0
   -7.9748    5.7608  -11.1516 C   0  0  0  0  0  0  0  0  0  0  0  0
   -8.2138    5.9052   -9.7958 C   0  0  0  0  0  0  0  0  0  0  0  0
   -8.5191    4.7590   -9.1037 C   0  0  0  0  0  0  0  0  0  0  0  0
   -8.6075    3.4903   -9.6820 C   0  0  0  0  0  0  0  0  0  0  0  0
   -8.3933    3.3466  -11.0428 C   0  0  0  0  0  0  0  0  0  0  0  0
   -8.9283    2.4826   -8.6199 C   0  0  0  0  0  0  0  0  0  0  0  0
   -8.9012    3.3133   -7.4183 N   0  0  0  0  0  0  0  0  0  0  0  0
   -8.9558    2.7820   -6.0758 C   0  0  1  0  0  0  0  0  0  0  0  0
   -7.9011    3.3893   -5.1394 C   0  0  0  0  0  0  0  0  0  0  0  0
   -8.6941    3.9418   -3.9999 C   0  0  0  0  0  0  0  0  0  0  0  0
   -8.2231    4.4086   -2.9729 O   0  0  0  0  0  0  0  0  0  0  0  0
  -10.0115    3.8241   -4.2680 N   0  0  0  0  0  0  0  0  0  0  0  0
  -10.2682    3.1428   -5.4127 C   0  0  0  0  0  0  0  0  0  0  0  0
  -11.3907    2.9210   -5.8348 O   0  0  0  0  0  0  0  0  0  0  0  0
   -8.7645    4.6516   -7.6781 C   0  0  0  0  0  0  0  0  0  0  0  0
   -8.8044    5.5869   -6.9007 O   0  0  0  0  0  0  0  0  0  0  0  0
   -8.3017    4.4126  -16.1257 C   0  0  0  0  0  0  0  0  0  0  0  0
   -8.2185    4.0880  -17.4783 C   0  0  0  0  0  0  0  0  0  0  0  0
   -9.6333    3.4569  -18.2247 Cl  0  0  0  0  0  0  0  0  0  0  0  0
  1  2  3  0
  2  3  1  0
  3  4  2  0
  4  5  1  0
  4  6  1  0
  6  7  2  0
  7  8  1  0
  8  9  2  0
  8 10  1  0
 10 11  1  0
 11 12  2  0
 12 13  1  0
 13 14  2  0
 14 15  1  0
 15 16  2  0
 15 17  1  0
 17 18  1  0
 19 18  1  6
 19 20  1  0
 20 21  1  0
 21 22  2  0
 21 23  1  0
 23 24  1  0
 24 25  2  0
 18 26  1  0
 26 27  2  0
  7 28  1  0
 28 29  2  0
 29 30  1  0
 29  3  1  0
 16 11  1  0
 24 19  1  0
 26 14  1  0
M  END
>  <name>  (168) 
P105323

>  <alias>  (168) 
None

>  <smina_score_min>  (168) 
-8.856

>  <exports>  (168) 
['/opt/xchem-fragalysis-2/maxwin/BulkDock/OUTPUTS/openbind_xx01zvns2b_c2_elabs_1LOUTNY.sdf', '/opt/xchem-fragalysis-2/maxwin/BulkDock/OUTPUTS/openbind_xx01zvns2b_c2_elabs_1LSYIIV.sdf']

>  <tags>  (168) 
syndirella_placed,openbind_xx01zvns2b_c2_elabs,openbind_xx01zvns2b_c2_elabs_scored_6.2plus,syndirella_product,openbind_xx01zvns2b_c2_elabs_scored,openbind_xx01zvns2b_c2_elabs_scored_top80percent,BulkDock Fragalysis export

>  <subsites>  (168) 
1 - Z4590/B/203/1

>  <smiles>  (168) 
N#Cc1c(Cl)cc(C(=O)Nc2ccc3c(c2)CN([C@H]2CC(=O)NC2=O)C3=O)cc1Cl

>  <HIPPO Pose ID>  (168) 
105323

>  <energy_score>  (168) 
-32.247039

>  <inchikey>  (168) 
BJHYUSAJYOMRFT-INIZCTEOSA-N

>  <gnina_score_min>  (168) 
6.233

>  <gnina_score>  (168) 
6.118

>  <ref_mols>  (168) 
Z3473a

>  <HIPPO Compound ID>  (168) 
166338

>  <distance_score>  (168) 
0.714914

>  <rmsd(smina/fragmenstein)>  (168) 
0.489

>  <ref_pdb>  (168) 
Z3473a

>  <inspiration_score>  (168) 
None

$$$$
P105335
     RDKit          3D

 31 34  0  0  0  0  0  0  0  0999 V2000
   -6.7791    3.5501  -20.5734 N   0  0  0  0  0  0  0  0  0  0  0  0
   -6.9294    3.9068  -19.4790 C   0  0  0  0  0  0  0  0  0  0  0  0
   -7.0452    4.2659  -18.0993 C   0  0  0  0  0  0  0  0  0  0  0  0
   -8.2386    4.0386  -17.3993 C   0  0  0  0  0  0  0  0  0  0  0  0
   -9.6428    3.4374  -18.1909 Cl  0  0  0  0  0  0  0  0  0  0  0  0
   -8.3445    4.3294  -16.0366 C   0  0  0  0  0  0  0  0  0  0  0  0
   -7.2504    4.8822  -15.3804 C   0  0  0  0  0  0  0  0  0  0  0  0
   -7.3947    5.4564  -14.0321 C   0  0  0  0  0  0  0  0  0  0  0  0
   -7.1541    6.5962  -13.9357 O   0  0  0  0  0  0  0  0  0  0  0  0
   -7.8152    4.4249  -12.9567 N   0  0  0  0  0  0  0  0  0  0  0  0
   -8.1090    4.5957  -11.6034 C   0  0  0  0  0  0  0  0  0  0  0  0
   -8.1084    5.9120  -11.0969 C   0  0  0  0  0  0  0  0  0  0  0  0
   -8.3382    6.1689   -9.7561 C   0  0  0  0  0  0  0  0  0  0  0  0
   -8.5503    5.0786   -8.9498 C   0  0  0  0  0  0  0  0  0  0  0  0
   -8.5609    3.7569   -9.4026 C   0  0  0  0  0  0  0  0  0  0  0  0
   -8.3590    3.4979  -10.7557 C   0  0  0  0  0  0  0  0  0  0  0  0
   -8.7708    2.8500   -8.2190 C   0  0  0  0  0  0  0  0  0  0  0  0
   -8.6337    3.7967   -7.0993 N   0  0  0  0  0  0  0  0  0  0  0  0
   -8.4986    3.4564   -5.6850 C   0  0  2  0  0  0  0  0  0  0  0  0
   -9.8110    3.6414   -4.9180 C   0  0  0  0  0  0  0  0  0  0  0  0
   -9.6028    4.1678   -3.5068 C   0  0  1  0  0  0  0  0  0  0  0  0
   -8.9539    3.2365   -2.7509 F   0  0  0  0  0  0  0  0  0  0  0  0
   -8.7604    5.4242   -3.5287 C   0  0  0  0  0  0  0  0  0  0  0  0
   -7.4670    5.1351   -4.0798 N   0  0  0  0  0  0  0  0  0  0  0  0
   -7.2728    4.2575   -5.1088 C   0  0  0  0  0  0  0  0  0  0  0  0
   -6.1179    4.1767   -5.5387 O   0  0  0  0  0  0  0  0  0  0  0  0
   -8.7165    5.1027   -7.5056 C   0  0  0  0  0  0  0  0  0  0  0  0
   -8.8578    6.1032   -6.8268 O   0  0  0  0  0  0  0  0  0  0  0  0
   -6.0554    5.1270  -16.0633 C   0  0  0  0  0  0  0  0  0  0  0  0
   -5.9519    4.8107  -17.4164 C   0  0  0  0  0  0  0  0  0  0  0  0
   -4.4444    5.1451  -18.2003 Cl  0  0  0  0  0  0  0  0  0  0  0  0
  1  2  3  0
  2  3  1  0
  3  4  2  0
  4  5  1  0
  4  6  1  0
  6  7  2  0
  7  8  1  0
  8  9  2  0
  8 10  1  0
 10 11  1  0
 11 12  2  0
 12 13  1  0
 13 14  2  0
 14 15  1  0
 15 16  2  0
 15 17  1  0
 17 18  1  0
 19 18  1  6
 19 20  1  0
 20 21  1  0
 21 22  1  1
 21 23  1  0
 23 24  1  0
 24 25  1  0
 25 26  2  0
 18 27  1  0
 27 28  2  0
  7 29  1  0
 29 30  2  0
 30 31  1  0
 30  3  1  0
 16 11  1  0
 25 19  1  0
 27 14  1  0
M  END
>  <name>  (169) 
P105335

>  <alias>  (169) 
None

>  <smina_score_min>  (169) 
-9.144

>  <exports>  (169) 
['/opt/xchem-fragalysis-2/maxwin/BulkDock/OUTPUTS/openbind_xx01zvns2b_c2_elabs_1LOUTNY.sdf', '/opt/xchem-fragalysis-2/maxwin/BulkDock/OUTPUTS/openbind_xx01zvns2b_c2_elabs_1LSYIIV.sdf']

>  <tags>  (169) 
syndirella_placed,openbind_xx01zvns2b_c2_elabs,openbind_xx01zvns2b_c2_elabs_scored_6.2plus,syndirella_product,openbind_xx01zvns2b_c2_elabs_scored,openbind_xx01zvns2b_c2_elabs_scored_top80percent,BulkDock Fragalysis export

>  <subsites>  (169) 
1 - Z4590/B/203/1

>  <smiles>  (169) 
N#Cc1c(Cl)cc(C(=O)Nc2ccc3c(c2)CN([C@@H]2C[C@@H](F)CNC2=O)C3=O)cc1Cl

>  <HIPPO Pose ID>  (169) 
105335

>  <energy_score>  (169) 
-14.527708

>  <inchikey>  (169) 
RFPWTKWNVSWEQQ-KZULUSFZSA-N

>  <gnina_score_min>  (169) 
6.241

>  <gnina_score>  (169) 
6.196

>  <ref_mols>  (169) 
Z3473a

>  <HIPPO Compound ID>  (169) 
166347

>  <distance_score>  (169) 
0.854121

>  <rmsd(smina/fragmenstein)>  (169) 
0.389

>  <ref_pdb>  (169) 
Z3473a

>  <inspiration_score>  (169) 
None

$$$$
P105338
     RDKit          3D

 31 34  0  0  0  0  0  0  0  0999 V2000
   -6.8246    3.4513  -20.7012 N   0  0  0  0  0  0  0  0  0  0  0  0
   -6.9275    3.8782  -19.6292 C   0  0  0  0  0  0  0  0  0  0  0  0
   -6.9951    4.3424  -18.2866 C   0  0  0  0  0  0  0  0  0  0  0  0
   -8.1703    4.1804  -17.5434 C   0  0  0  0  0  0  0  0  0  0  0  0
   -9.5976    3.5000  -18.2214 Cl  0  0  0  0  0  0  0  0  0  0  0  0
   -8.2271    4.5893  -16.2160 C   0  0  0  0  0  0  0  0  0  0  0  0
   -7.1001    5.1769  -15.6460 C   0  0  0  0  0  0  0  0  0  0  0  0
   -7.1446    5.7044  -14.2757 C   0  0  0  0  0  0  0  0  0  0  0  0
   -6.7707    6.7911  -14.0819 O   0  0  0  0  0  0  0  0  0  0  0  0
   -7.6564    4.6349  -13.2939 N   0  0  0  0  0  0  0  0  0  0  0  0
   -7.8959    4.7050  -11.9345 C   0  0  0  0  0  0  0  0  0  0  0  0
   -7.6806    5.9118  -11.2426 C   0  0  0  0  0  0  0  0  0  0  0  0
   -7.8535    5.9818   -9.8678 C   0  0  0  0  0  0  0  0  0  0  0  0
   -8.2429    4.8250   -9.2377 C   0  0  0  0  0  0  0  0  0  0  0  0
   -8.4840    3.6326   -9.9077 C   0  0  0  0  0  0  0  0  0  0  0  0
   -8.3183    3.5501  -11.2726 C   0  0  0  0  0  0  0  0  0  0  0  0
   -8.9066    2.5924   -8.9399 C   0  0  0  0  0  0  0  0  0  0  0  0
   -8.9328    3.3304   -7.6704 N   0  0  0  0  0  0  0  0  0  0  0  0
   -8.9626    2.6088   -6.4113 C   0  0  1  0  0  0  0  0  0  0  0  0
   -9.2474    3.4513   -5.1702 C   0  0  0  0  0  0  0  0  0  0  0  0
  -10.7212    3.6966   -5.0786 C   0  0  0  0  0  0  0  0  0  0  0  0
  -11.4826    2.3961   -5.1415 C   0  0  0  0  0  0  0  0  0  0  0  0
  -12.6734    2.2915   -4.8817 O   0  0  0  0  0  0  0  0  0  0  0  0
  -10.7936    1.3058   -5.5184 N   0  0  0  0  0  0  0  0  0  0  0  0
   -9.9134    1.4180   -6.5280 C   0  0  0  0  0  0  0  0  0  0  0  0
   -9.9635    0.6294   -7.4653 O   0  0  0  0  0  0  0  0  0  0  0  0
   -8.4515    4.6143   -7.8161 C   0  0  0  0  0  0  0  0  0  0  0  0
   -8.2057    5.4686   -6.9856 O   0  0  0  0  0  0  0  0  0  0  0  0
   -5.9240    5.3542  -16.3711 C   0  0  0  0  0  0  0  0  0  0  0  0
   -5.8719    4.9306  -17.6922 C   0  0  0  0  0  0  0  0  0  0  0  0
   -4.3853    5.1727  -18.5457 Cl  0  0  0  0  0  0  0  0  0  0  0  0
  1  2  3  0
  2  3  1  0
  3  4  2  0
  4  5  1  0
  4  6  1  0
  6  7  2  0
  7  8  1  0
  8  9  2  0
  8 10  1  0
 10 11  1  0
 11 12  2  0
 12 13  1  0
 13 14  2  0
 14 15  1  0
 15 16  2  0
 15 17  1  0
 17 18  1  0
 19 18  1  6
 19 20  1  0
 20 21  1  0
 21 22  1  0
 22 23  2  0
 22 24  1  0
 24 25  1  0
 25 26  2  0
 18 27  1  0
 27 28  2  0
  7 29  1  0
 29 30  2  0
 30 31  1  0
 30  3  1  0
 16 11  1  0
 25 19  1  0
 27 14  1  0
M  END
>  <name>  (170) 
P105338

>  <alias>  (170) 
None

>  <smina_score_min>  (170) 
-8.174

>  <exports>  (170) 
['/opt/xchem-fragalysis-2/maxwin/BulkDock/OUTPUTS/openbind_xx01zvns2b_c2_elabs_1LOUTNY.sdf', '/opt/xchem-fragalysis-2/maxwin/BulkDock/OUTPUTS/openbind_xx01zvns2b_c2_elabs_1LSYIIV.sdf']

>  <tags>  (170) 
syndirella_placed,openbind_xx01zvns2b_c2_elabs,openbind_xx01zvns2b_c2_elabs_scored_6.2plus,syndirella_product,openbind_xx01zvns2b_c2_elabs_scored,openbind_xx01zvns2b_c2_elabs_scored_top80percent,BulkDock Fragalysis export

>  <subsites>  (170) 
1 - Z4590/B/203/1

>  <smiles>  (170) 
N#Cc1c(Cl)cc(C(=O)Nc2ccc3c(c2)CN([C@H]2CCC(=O)NC2=O)C3=O)cc1Cl

>  <HIPPO Pose ID>  (170) 
105338

>  <energy_score>  (170) 
-31.581531

>  <inchikey>  (170) 
FHBCRONEQWAASF-KRWDZBQOSA-N

>  <gnina_score_min>  (170) 
6.314

>  <gnina_score>  (170) 
6.282

>  <ref_mols>  (170) 
Z3473a

>  <HIPPO Compound ID>  (170) 
166348

>  <distance_score>  (170) 
0.895752

>  <rmsd(smina/fragmenstein)>  (170) 
0.391

>  <ref_pdb>  (170) 
Z3473a

>  <inspiration_score>  (170) 
None

$$$$
P105339
     RDKit          3D

 31 34  0  0  0  0  0  0  0  0999 V2000
   -6.8606    3.4433  -20.7106 N   0  0  0  0  0  0  0  0  0  0  0  0
   -7.0152    3.8374  -19.6325 C   0  0  0  0  0  0  0  0  0  0  0  0
   -7.1272    4.2548  -18.2786 C   0  0  0  0  0  0  0  0  0  0  0  0
   -8.3221    4.0669  -17.5700 C   0  0  0  0  0  0  0  0  0  0  0  0
   -9.7369    3.4516  -18.3189 Cl  0  0  0  0  0  0  0  0  0  0  0  0
   -8.4199    4.4047  -16.2245 C   0  0  0  0  0  0  0  0  0  0  0  0
   -7.3126    4.9618  -15.6090 C   0  0  0  0  0  0  0  0  0  0  0  0
   -7.3586    5.4800  -14.2436 C   0  0  0  0  0  0  0  0  0  0  0  0
   -6.9492    6.5639  -14.0948 O   0  0  0  0  0  0  0  0  0  0  0  0
   -7.8569    4.4459  -13.2079 N   0  0  0  0  0  0  0  0  0  0  0  0
   -7.8658    4.4921  -11.8234 C   0  0  0  0  0  0  0  0  0  0  0  0
   -7.1401    5.5594  -11.2511 C   0  0  0  0  0  0  0  0  0  0  0  0
   -6.9098    5.6229   -9.8992 C   0  0  0  0  0  0  0  0  0  0  0  0
   -7.4671    4.6198   -9.1548 C   0  0  0  0  0  0  0  0  0  0  0  0
   -8.2729    3.6221   -9.6590 C   0  0  0  0  0  0  0  0  0  0  0  0
   -8.4649    3.5045  -11.0261 C   0  0  0  0  0  0  0  0  0  0  0  0
   -8.8428    2.9367   -8.4888 C   0  0  0  0  0  0  0  0  0  0  0  0
   -9.6828    2.0659   -8.6095 O   0  0  0  0  0  0  0  0  0  0  0  0
   -8.2956    3.5545   -7.3708 N   0  0  0  0  0  0  0  0  0  0  0  0
   -8.7703    3.5252   -6.0440 C   0  0  0  0  0  0  0  0  0  0  0  0
   -8.0151    4.1176   -5.0013 C   0  0  0  0  0  0  0  0  0  0  0  0
   -8.5700    4.4144   -3.7685 C   0  0  0  0  0  0  0  0  0  0  0  0
   -9.8873    4.0901   -3.5696 C   0  0  0  0  0  0  0  0  0  0  0  0
  -10.4555    4.4134   -2.3995 F   0  0  0  0  0  0  0  0  0  0  0  0
  -10.6157    3.4069   -4.5480 C   0  0  0  0  0  0  0  0  0  0  0  0
  -10.0604    3.0988   -5.7779 C   0  0  0  0  0  0  0  0  0  0  0  0
   -7.3757    4.4962   -7.7336 C   0  0  0  0  0  0  0  0  0  0  0  0
   -6.6050    5.2117   -7.1127 O   0  0  0  0  0  0  0  0  0  0  0  0
   -6.1137    5.1680  -16.3007 C   0  0  0  0  0  0  0  0  0  0  0  0
   -6.0210    4.8129  -17.6356 C   0  0  0  0  0  0  0  0  0  0  0  0
   -4.5168    5.1083  -18.4379 Cl  0  0  0  0  0  0  0  0  0  0  0  0
  1  2  3  0
  2  3  1  0
  3  4  2  0
  4  5  1  0
  4  6  1  0
  6  7  2  0
  7  8  1  0
  8  9  2  0
  8 10  1  0
 10 11  1  0
 11 12  2  0
 12 13  1  0
 13 14  2  0
 14 15  1  0
 15 16  2  0
 15 17  1  0
 17 18  2  0
 17 19  1  0
 19 20  1  0
 20 21  2  0
 21 22  1  0
 22 23  2  0
 23 24  1  0
 23 25  1  0
 25 26  2  0
 19 27  1  0
 27 28  2  0
  7 29  1  0
 29 30  2  0
 30 31  1  0
 30  3  1  0
 16 11  1  0
 26 20  1  0
 27 14  1  0
M  END
>  <name>  (171) 
P105339

>  <alias>  (171) 
None

>  <smina_score_min>  (171) 
-9.135

>  <exports>  (171) 
['/opt/xchem-fragalysis-2/maxwin/BulkDock/OUTPUTS/openbind_xx01zvns2b_c2_elabs_1LOUTNY.sdf', '/opt/xchem-fragalysis-2/maxwin/BulkDock/OUTPUTS/openbind_xx01zvns2b_c2_elabs_1LSYIIV.sdf']

>  <tags>  (171) 
syndirella_placed,openbind_xx01zvns2b_c2_elabs,openbind_xx01zvns2b_c2_elabs_scored_6.2plus,syndirella_product,openbind_xx01zvns2b_c2_elabs_scored,openbind_xx01zvns2b_c2_elabs_scored_top80percent,BulkDock Fragalysis export

>  <subsites>  (171) 
1 - Z4590/B/203/1

>  <smiles>  (171) 
N#Cc1c(Cl)cc(C(=O)Nc2ccc3c(c2)C(=O)N(c2ccc(F)cc2)C3=O)cc1Cl

>  <HIPPO Pose ID>  (171) 
105339

>  <energy_score>  (171) 
-3.434538

>  <inchikey>  (171) 
NBOHTNGRZCSZLB-UHFFFAOYSA-N

>  <gnina_score_min>  (171) 
6.211

>  <gnina_score>  (171) 
6.114

>  <ref_mols>  (171) 
Z3473a

>  <HIPPO Compound ID>  (171) 
166349

>  <distance_score>  (171) 
0.974662

>  <rmsd(smina/fragmenstein)>  (171) 
0.598

>  <ref_pdb>  (171) 
Z3473a

>  <inspiration_score>  (171) 
None

$$$$
P115376
     RDKit          3D

 30 34  0  0  0  0  0  0  0  0999 V2000
   -9.2268    3.8877  -18.0671 C   0  0  0  0  0  0  0  0  0  0  0  0
   -8.0838    4.3392  -17.2000 C   0  0  0  0  0  0  0  0  0  0  0  0
   -8.2707    4.4932  -15.8212 C   0  0  0  0  0  0  0  0  0  0  0  0
   -7.2136    4.9719  -15.0433 C   0  0  0  0  0  0  0  0  0  0  0  0
   -7.3751    5.4216  -13.6438 C   0  0  0  0  0  0  0  0  0  0  0  0
   -7.0053    6.5088  -13.4220 O   0  0  0  0  0  0  0  0  0  0  0  0
   -7.9861    4.3542  -12.6969 N   0  0  0  0  0  0  0  0  0  0  0  0
   -8.1750    4.3704  -11.2994 C   0  0  0  0  0  0  0  0  0  0  0  0
   -8.5878    3.1987  -10.6428 C   0  0  0  0  0  0  0  0  0  0  0  0
   -8.7088    3.2363   -9.2548 C   0  0  0  0  0  0  0  0  0  0  0  0
   -8.4018    4.3694   -8.5027 C   0  0  0  0  0  0  0  0  0  0  0  0
   -8.0288    5.5355   -9.1315 C   0  0  0  0  0  0  0  0  0  0  0  0
   -7.9343    5.5305  -10.5249 C   0  0  0  0  0  0  0  0  0  0  0  0
   -7.6041    6.6977  -11.0892 F   0  0  0  0  0  0  0  0  0  0  0  0
   -8.5387    4.0871   -7.0472 C   0  0  0  0  0  0  0  0  0  0  0  0
   -9.0918    2.7650   -7.0324 N   0  0  0  0  0  0  0  0  0  0  0  0
   -9.1531    2.2104   -8.2955 C   0  0  0  0  0  0  0  0  0  0  0  0
   -9.5510    1.0951   -8.5424 O   0  0  0  0  0  0  0  0  0  0  0  0
   -5.9878    5.2161  -15.6814 C   0  0  0  0  0  0  0  0  0  0  0  0
   -4.6958    5.6699  -15.3370 C   0  0  0  0  0  0  0  0  0  0  0  0
   -3.8574    5.7003  -16.3794 N   0  0  0  0  0  0  0  0  0  0  0  0
   -4.6435    5.3180  -17.4183 N   0  0  0  0  0  0  0  0  0  0  0  0
   -4.0927    5.2007  -18.7575 C   0  0  0  0  0  0  0  0  0  0  0  0
   -4.1265    6.5109  -19.4843 C   0  0  0  0  0  0  0  0  0  0  0  0
   -5.1886    7.0841  -20.1578 C   0  0  0  0  0  0  0  0  0  0  0  0
   -4.8382    8.3221  -20.7685 C   0  0  0  0  0  0  0  0  0  0  0  0
   -3.5256    8.6604  -20.5295 C   0  0  0  0  0  0  0  0  0  0  0  0
   -2.7202    7.4835  -19.5874 S   0  0  0  0  0  0  0  0  0  0  0  0
   -5.9245    5.0048  -17.0464 C   0  0  0  0  0  0  0  0  0  0  0  0
   -6.9202    4.5886  -17.8478 N   0  0  0  0  0  0  0  0  0  0  0  0
  1  2  1  0
  2  3  2  0
  3  4  1  0
  4  5  1  0
  5  6  2  0
  5  7  1  0
  7  8  1  0
  8  9  2  0
  9 10  1  0
 10 11  2  0
 11 12  1  0
 12 13  2  0
 13 14  1  0
 11 15  1  0
 15 16  1  0
 16 17  1  0
 17 18  2  0
  4 19  2  0
 19 20  1  0
 20 21  2  0
 21 22  1  0
 22 23  1  0
 23 24  1  0
 24 25  2  0
 25 26  1  0
 26 27  2  0
 27 28  1  0
 22 29  1  0
 29 30  2  0
 30  2  1  0
 13  8  1  0
 29 19  1  0
 17 10  1  0
 28 24  1  0
M  END
>  <name>  (172) 
P115376

>  <alias>  (172) 
None

>  <smina_score_min>  (172) 
-8.523

>  <exports>  (172) 
['/opt/xchem-fragalysis-2/maxwin/BulkDock/OUTPUTS/openbind_xx01zvns2b_c2_elabs_1LOUTNY.sdf', '/opt/xchem-fragalysis-2/maxwin/BulkDock/OUTPUTS/openbind_xx01zvns2b_c2_elabs_1LSYIIV.sdf']

>  <tags>  (172) 
syndirella_placed,openbind_xx01zvns2b_c2_elabs,openbind_xx01zvns2b_c2_elabs_scored_6.2plus,syndirella_product,openbind_xx01zvns2b_c2_elabs_scored,openbind_xx01zvns2b_c2_elabs_scored_top80percent,BulkDock Fragalysis export

>  <subsites>  (172) 
1 - Z4590/B/203/1

>  <smiles>  (172) 
Cc1cc(C(=O)Nc2cc3c(cc2F)CNC3=O)c2cnn(Cc3cccs3)c2n1

>  <HIPPO Pose ID>  (172) 
115376

>  <energy_score>  (172) 
-35.619397

>  <inchikey>  (172) 
KAUNXOXZSCXBOI-UHFFFAOYSA-N

>  <gnina_score_min>  (172) 
6.496

>  <gnina_score>  (172) 
6.144

>  <ref_mols>  (172) 
Z3556a

>  <HIPPO Compound ID>  (172) 
178275

>  <distance_score>  (172) 
0.385038

>  <rmsd(smina/fragmenstein)>  (172) 
1.229

>  <ref_pdb>  (172) 
Z3556a

>  <inspiration_score>  (172) 
None

$$$$
P115398
     RDKit          3D

 30 34  0  0  0  0  0  0  0  0999 V2000
   -9.2784    3.9074  -18.2438 C   0  0  0  0  0  0  0  0  0  0  0  0
   -8.1089    4.3686  -17.4217 C   0  0  0  0  0  0  0  0  0  0  0  0
   -8.2647    4.5905  -16.0597 C   0  0  0  0  0  0  0  0  0  0  0  0
   -7.1725    5.0602  -15.3310 C   0  0  0  0  0  0  0  0  0  0  0  0
   -7.3410    5.5232  -13.9470 C   0  0  0  0  0  0  0  0  0  0  0  0
   -7.1870    6.6595  -13.7312 O   0  0  0  0  0  0  0  0  0  0  0  0
   -7.7523    4.3737  -13.0057 N   0  0  0  0  0  0  0  0  0  0  0  0
   -7.9614    4.3628  -11.6296 C   0  0  0  0  0  0  0  0  0  0  0  0
   -7.8406    5.5424  -10.8713 C   0  0  0  0  0  0  0  0  0  0  0  0
   -8.0700    5.5421   -9.4926 C   0  0  0  0  0  0  0  0  0  0  0  0
   -8.4298    4.3498   -8.9017 C   0  0  0  0  0  0  0  0  0  0  0  0
   -8.5416    3.1759   -9.6509 C   0  0  0  0  0  0  0  0  0  0  0  0
   -8.3036    3.1589  -11.0128 C   0  0  0  0  0  0  0  0  0  0  0  0
   -8.9520    2.0653   -8.7380 C   0  0  0  0  0  0  0  0  0  0  0  0
   -9.5329    2.7853   -7.5820 N   0  0  0  0  0  0  0  0  0  0  0  0
   -9.4879    1.9971   -6.3747 C   0  0  0  0  0  0  0  0  0  0  0  0
   -8.7748    4.0458   -7.4783 C   0  0  0  0  0  0  0  0  0  0  0  0
   -5.9376    5.2180  -15.9718 C   0  0  0  0  0  0  0  0  0  0  0  0
   -4.6102    5.5692  -15.6341 C   0  0  0  0  0  0  0  0  0  0  0  0
   -4.0642    5.9188  -14.2982 C   0  0  0  0  0  0  0  0  0  0  0  0
   -3.7942    5.5235  -16.6936 N   0  0  0  0  0  0  0  0  0  0  0  0
   -4.6109    5.2384  -17.7540 N   0  0  0  0  0  0  0  0  0  0  0  0
   -4.0883    5.2584  -19.0808 C   0  0  0  0  0  0  0  0  0  0  0  0
   -4.9316    5.2631  -20.2006 C   0  0  0  0  0  0  0  0  0  0  0  0
   -4.3940    5.3035  -21.4899 C   0  0  0  0  0  0  0  0  0  0  0  0
   -3.0137    5.3191  -21.6733 C   0  0  0  0  0  0  0  0  0  0  0  0
   -2.1679    5.3120  -20.5660 C   0  0  0  0  0  0  0  0  0  0  0  0
   -2.6992    5.2948  -19.2741 C   0  0  0  0  0  0  0  0  0  0  0  0
   -5.9092    4.9752  -17.3353 C   0  0  0  0  0  0  0  0  0  0  0  0
   -6.9513    4.5599  -18.0857 N   0  0  0  0  0  0  0  0  0  0  0  0
  1  2  1  0
  2  3  2  0
  3  4  1  0
  4  5  1  0
  5  6  2  0
  5  7  1  0
  7  8  1  0
  8  9  2  0
  9 10  1  0
 10 11  2  0
 11 12  1  0
 12 13  2  0
 12 14  1  0
 14 15  1  0
 15 16  1  0
 15 17  1  0
  4 18  2  0
 18 19  1  0
 19 20  1  0
 19 21  2  0
 21 22  1  0
 22 23  1  0
 23 24  2  0
 24 25  1  0
 25 26  2  0
 26 27  1  0
 27 28  2  0
 22 29  1  0
 29 30  2  0
 30  2  1  0
 13  8  1  0
 29 18  1  0
 17 11  1  0
 28 23  1  0
M  END
>  <name>  (173) 
P115398

>  <alias>  (173) 
None

>  <smina_score_min>  (173) 
-9.426

>  <exports>  (173) 
['/opt/xchem-fragalysis-2/maxwin/BulkDock/OUTPUTS/openbind_xx01zvns2b_c2_elabs_1LOUTNY.sdf', '/opt/xchem-fragalysis-2/maxwin/BulkDock/OUTPUTS/openbind_xx01zvns2b_c2_elabs_1LSYIIV.sdf']

>  <tags>  (173) 
syndirella_placed,openbind_xx01zvns2b_c2_elabs,openbind_xx01zvns2b_c2_elabs_scored_6.2plus,syndirella_product,openbind_xx01zvns2b_c2_elabs_scored,openbind_xx01zvns2b_c2_elabs_scored_top80percent,BulkDock Fragalysis export

>  <subsites>  (173) 
1 - Z4590/B/203/1

>  <smiles>  (173) 
Cc1cc(C(=O)Nc2ccc3c(c2)CN(C)C3)c2c(C)nn(-c3ccccc3)c2n1

>  <HIPPO Pose ID>  (173) 
115398

>  <energy_score>  (173) 
-17.87187

>  <inchikey>  (173) 
JDUYWWZKKNFPCJ-UHFFFAOYSA-N

>  <gnina_score_min>  (173) 
6.282

>  <gnina_score>  (173) 
6.196

>  <ref_mols>  (173) 
Z3556a

>  <HIPPO Compound ID>  (173) 
178303

>  <distance_score>  (173) 
0.499105

>  <rmsd(smina/fragmenstein)>  (173) 
0.317

>  <ref_pdb>  (173) 
Z3556a

>  <inspiration_score>  (173) 
None

$$$$
P115418
     RDKit          3D

 30 33  0  0  0  0  0  0  0  0999 V2000
   -4.2334    6.0279  -14.1637 C   0  0  0  0  0  0  0  0  0  0  0  0
   -4.7126    5.7191  -15.5341 C   0  0  0  0  0  0  0  0  0  0  0  0
   -3.8661    5.7875  -16.5675 N   0  0  0  0  0  0  0  0  0  0  0  0
   -4.6301    5.4870  -17.6546 N   0  0  0  0  0  0  0  0  0  0  0  0
   -4.0357    5.6842  -18.9886 C   0  0  0  0  0  0  0  0  0  0  0  0
   -3.7692    7.1945  -19.1873 C   0  0  0  0  0  0  0  0  0  0  0  0
   -2.6888    4.9364  -19.0819 C   0  0  0  0  0  0  0  0  0  0  0  0
   -4.9322    5.2321  -20.1582 C   0  0  0  0  0  0  0  0  0  0  0  0
   -5.9229    5.1578  -17.3142 C   0  0  0  0  0  0  0  0  0  0  0  0
   -6.9253    4.7831  -18.1320 N   0  0  0  0  0  0  0  0  0  0  0  0
   -8.1151    4.5420  -17.5315 C   0  0  0  0  0  0  0  0  0  0  0  0
   -9.2135    4.0135  -18.4434 C   0  0  0  0  0  0  0  0  0  0  0  0
  -10.6019    4.6172  -18.3578 C   0  0  0  0  0  0  0  0  0  0  0  0
   -9.3496    2.5352  -18.2001 C   0  0  0  0  0  0  0  0  0  0  0  0
   -8.3247    4.6977  -16.1619 C   0  0  0  0  0  0  0  0  0  0  0  0
   -7.2697    5.1400  -15.3650 C   0  0  0  0  0  0  0  0  0  0  0  0
   -7.5028    5.5807  -13.9841 C   0  0  0  0  0  0  0  0  0  0  0  0
   -7.4494    6.7263  -13.7696 O   0  0  0  0  0  0  0  0  0  0  0  0
   -7.8051    4.4005  -13.0406 N   0  0  0  0  0  0  0  0  0  0  0  0
   -8.0052    4.3722  -11.6621 C   0  0  0  0  0  0  0  0  0  0  0  0
   -7.9136    5.5533  -10.9005 C   0  0  0  0  0  0  0  0  0  0  0  0
   -8.1267    5.5437   -9.5193 C   0  0  0  0  0  0  0  0  0  0  0  0
   -8.4511    4.3415   -8.9288 C   0  0  0  0  0  0  0  0  0  0  0  0
   -8.5403    3.1670   -9.6808 C   0  0  0  0  0  0  0  0  0  0  0  0
   -8.3049    3.1574  -11.0444 C   0  0  0  0  0  0  0  0  0  0  0  0
   -8.9355    2.0491   -8.7687 C   0  0  0  0  0  0  0  0  0  0  0  0
   -9.5267    2.7591   -7.6119 N   0  0  0  0  0  0  0  0  0  0  0  0
   -9.4812    1.9691   -6.4061 C   0  0  0  0  0  0  0  0  0  0  0  0
   -8.7837    4.0274   -7.5044 C   0  0  0  0  0  0  0  0  0  0  0  0
   -6.0121    5.3373  -15.9436 C   0  0  0  0  0  0  0  0  0  0  0  0
  1  2  1  0
  2  3  2  0
  3  4  1  0
  4  5  1  0
  5  6  1  0
  5  7  1  0
  5  8  1  0
  4  9  1  0
  9 10  2  0
 10 11  1  0
 11 12  1  0
 12 13  1  0
 12 14  1  0
 11 15  2  0
 15 16  1  0
 16 17  1  0
 17 18  2  0
 17 19  1  0
 19 20  1  0
 20 21  2  0
 21 22  1  0
 22 23  2  0
 23 24  1  0
 24 25  2  0
 24 26  1  0
 26 27  1  0
 27 28  1  0
 27 29  1  0
 16 30  2  0
 30  2  1  0
 30  9  1  0
 25 20  1  0
 29 23  1  0
M  END
>  <name>  (174) 
P115418

>  <alias>  (174) 
None

>  <smina_score_min>  (174) 
-7.785

>  <exports>  (174) 
['/opt/xchem-fragalysis-2/maxwin/BulkDock/OUTPUTS/openbind_xx01zvns2b_c2_elabs_1LOUTNY.sdf', '/opt/xchem-fragalysis-2/maxwin/BulkDock/OUTPUTS/openbind_xx01zvns2b_c2_elabs_1LSYIIV.sdf']

>  <tags>  (174) 
syndirella_placed,openbind_xx01zvns2b_c2_elabs,openbind_xx01zvns2b_c2_elabs_scored_6.2plus,syndirella_product,openbind_xx01zvns2b_c2_elabs_scored,openbind_xx01zvns2b_c2_elabs_scored_top80percent,BulkDock Fragalysis export

>  <subsites>  (174) 
1 - Z4590/B/203/1

>  <smiles>  (174) 
Cc1nn(C(C)(C)C)c2nc(C(C)C)cc(C(=O)Nc3ccc4c(c3)CN(C)C4)c12

>  <HIPPO Pose ID>  (174) 
115418

>  <energy_score>  (174) 
-61.800364

>  <inchikey>  (174) 
OSROIMFNTBHWQI-UHFFFAOYSA-N

>  <gnina_score_min>  (174) 
6.368

>  <gnina_score>  (174) 
6.325

>  <ref_mols>  (174) 
Z3556a

>  <HIPPO Compound ID>  (174) 
178324

>  <distance_score>  (174) 
0.560536

>  <rmsd(smina/fragmenstein)>  (174) 
0.233

>  <ref_pdb>  (174) 
Z3556a

>  <inspiration_score>  (174) 
None

$$$$
P115430
     RDKit          3D

 30 34  0  0  0  0  0  0  0  0999 V2000
  -10.7424    2.5860   -5.7124 C   0  0  0  0  0  0  0  0  0  0  0  0
   -9.3785    2.2051   -6.2518 C   0  0  0  0  0  0  0  0  0  0  0  0
   -9.0776    2.8752   -7.4869 N   0  0  0  0  0  0  0  0  0  0  0  0
   -8.8161    2.1410   -8.7131 C   0  0  0  0  0  0  0  0  0  0  0  0
   -8.4802    3.2406   -9.6632 C   0  0  0  0  0  0  0  0  0  0  0  0
   -8.2253    3.1975  -11.0231 C   0  0  0  0  0  0  0  0  0  0  0  0
   -7.9238    4.4018  -11.6703 C   0  0  0  0  0  0  0  0  0  0  0  0
   -7.6314    4.3902  -13.0310 N   0  0  0  0  0  0  0  0  0  0  0  0
   -7.3329    5.5509  -14.0012 C   0  0  0  0  0  0  0  0  0  0  0  0
   -7.2091    6.6934  -13.7987 O   0  0  0  0  0  0  0  0  0  0  0  0
   -7.1518    5.0785  -15.3767 C   0  0  0  0  0  0  0  0  0  0  0  0
   -8.2156    4.5680  -16.1190 C   0  0  0  0  0  0  0  0  0  0  0  0
   -8.0281    4.3496  -17.4824 C   0  0  0  0  0  0  0  0  0  0  0  0
   -9.1833    3.8755  -18.3180 C   0  0  0  0  0  0  0  0  0  0  0  0
   -6.8612    4.5648  -18.1352 N   0  0  0  0  0  0  0  0  0  0  0  0
   -5.8617    5.0168  -17.3580 C   0  0  0  0  0  0  0  0  0  0  0  0
   -5.9245    5.2937  -16.0064 C   0  0  0  0  0  0  0  0  0  0  0  0
   -4.6406    5.7712  -15.6789 C   0  0  0  0  0  0  0  0  0  0  0  0
   -3.8123    5.7935  -16.7291 N   0  0  0  0  0  0  0  0  0  0  0  0
   -4.5865    5.3352  -17.7478 N   0  0  0  0  0  0  0  0  0  0  0  0
   -4.0938    5.3240  -19.1152 C   0  0  0  0  0  0  0  0  0  0  0  0
   -2.6317    4.8672  -19.2572 C   0  0  0  0  0  0  0  0  0  0  0  0
   -1.8443    6.1445  -19.5084 C   0  0  0  0  0  0  0  0  0  0  0  0
   -2.7878    6.9583  -20.3766 C   0  0  0  0  0  0  0  0  0  0  0  0
   -4.1576    6.7256  -19.7499 C   0  0  0  0  0  0  0  0  0  0  0  0
   -7.8857    5.6163  -10.9546 C   0  0  0  0  0  0  0  0  0  0  0  0
   -8.1435    5.6530   -9.5869 C   0  0  0  0  0  0  0  0  0  0  0  0
   -8.4332    4.4542   -8.9763 C   0  0  0  0  0  0  0  0  0  0  0  0
   -8.7675    4.2130   -7.5741 C   0  0  0  0  0  0  0  0  0  0  0  0
   -8.7668    5.0654   -6.7056 O   0  0  0  0  0  0  0  0  0  0  0  0
  1  2  1  0
  2  3  1  0
  3  4  1  0
  4  5  1  0
  5  6  2  0
  6  7  1  0
  7  8  1  0
  8  9  1  0
  9 10  2  0
  9 11  1  0
 11 12  2  0
 12 13  1  0
 13 14  1  0
 13 15  2  0
 15 16  1  0
 16 17  2  0
 17 18  1  0
 18 19  2  0
 19 20  1  0
 20 21  1  0
 21 22  1  0
 22 23  1  0
 23 24  1  0
 24 25  1  0
  7 26  2  0
 26 27  1  0
 27 28  2  0
 28 29  1  0
 29 30  2  0
 29  3  1  0
 28  5  1  0
 17 11  1  0
 25 21  1  0
 20 16  1  0
M  END
>  <name>  (175) 
P115430

>  <alias>  (175) 
None

>  <smina_score_min>  (175) 
-8.932

>  <exports>  (175) 
['/opt/xchem-fragalysis-2/maxwin/BulkDock/OUTPUTS/openbind_xx01zvns2b_c2_elabs_1LOUTNY.sdf', '/opt/xchem-fragalysis-2/maxwin/BulkDock/OUTPUTS/openbind_xx01zvns2b_c2_elabs_1LSYIIV.sdf']

>  <tags>  (175) 
syndirella_placed,openbind_xx01zvns2b_c2_elabs,openbind_xx01zvns2b_c2_elabs_scored_6.2plus,syndirella_product,openbind_xx01zvns2b_c2_elabs_scored,openbind_xx01zvns2b_c2_elabs_scored_top80percent,BulkDock Fragalysis export

>  <subsites>  (175) 
1 - Z4590/B/203/1

>  <smiles>  (175) 
CCN1Cc2cc(NC(=O)c3cc(C)nc4c3cnn4C3CCCC3)ccc2C1=O

>  <HIPPO Pose ID>  (175) 
115430

>  <energy_score>  (175) 
-45.294849

>  <inchikey>  (175) 
MSRUXRLHNHNLPC-UHFFFAOYSA-N

>  <gnina_score_min>  (175) 
6.224

>  <gnina_score>  (175) 
6.212

>  <ref_mols>  (175) 
Z3556a

>  <HIPPO Compound ID>  (175) 
178342

>  <distance_score>  (175) 
0.54815

>  <rmsd(smina/fragmenstein)>  (175) 
0.289

>  <ref_pdb>  (175) 
Z3556a

>  <inspiration_score>  (175) 
None

$$$$
P115431
     RDKit          3D

 30 34  0  0  0  0  0  0  0  0999 V2000
   -9.1940    3.8550  -18.2113 C   0  0  0  0  0  0  0  0  0  0  0  0
   -8.0502    4.3431  -17.3664 C   0  0  0  0  0  0  0  0  0  0  0  0
   -8.2520    4.5840  -16.0075 C   0  0  0  0  0  0  0  0  0  0  0  0
   -7.2038    5.1216  -15.2608 C   0  0  0  0  0  0  0  0  0  0  0  0
   -7.3991    5.6490  -13.8993 C   0  0  0  0  0  0  0  0  0  0  0  0
   -7.1225    6.7703  -13.7243 O   0  0  0  0  0  0  0  0  0  0  0  0
   -7.9346    4.5843  -12.9160 N   0  0  0  0  0  0  0  0  0  0  0  0
   -8.1449    4.6475  -11.5375 C   0  0  0  0  0  0  0  0  0  0  0  0
   -8.0022    5.8747  -10.8633 C   0  0  0  0  0  0  0  0  0  0  0  0
   -8.1390    5.9667   -9.4759 C   0  0  0  0  0  0  0  0  0  0  0  0
   -8.4307    4.8159   -8.7737 C   0  0  0  0  0  0  0  0  0  0  0  0
   -8.6122    3.5971   -9.4485 C   0  0  0  0  0  0  0  0  0  0  0  0
   -8.4641    3.4898  -10.8254 C   0  0  0  0  0  0  0  0  0  0  0  0
   -8.9312    2.5333   -8.4443 C   0  0  0  0  0  0  0  0  0  0  0  0
   -9.2864    3.3116   -7.2384 N   0  0  0  0  0  0  0  0  0  0  0  0
   -9.2264    2.5359   -6.0265 C   0  0  0  0  0  0  0  0  0  0  0  0
   -8.5249    4.5804   -7.2802 C   0  0  0  0  0  0  0  0  0  0  0  0
   -7.0768    4.5417   -6.7478 C   0  0  0  0  0  0  0  0  0  0  0  0
   -9.2625    5.6630   -6.4752 C   0  0  0  0  0  0  0  0  0  0  0  0
   -5.9722    5.3317  -15.8915 C   0  0  0  0  0  0  0  0  0  0  0  0
   -4.6922    5.8105  -15.5538 C   0  0  0  0  0  0  0  0  0  0  0  0
   -3.8456    5.7969  -16.5876 N   0  0  0  0  0  0  0  0  0  0  0  0
   -4.6144    5.3695  -17.6242 N   0  0  0  0  0  0  0  0  0  0  0  0
   -4.0144    5.2447  -18.9358 C   0  0  0  0  0  0  0  0  0  0  0  0
   -4.9637    5.2919  -20.1374 C   0  0  0  0  0  0  0  0  0  0  0  0
   -4.0444    5.5085  -21.3322 C   0  0  0  0  0  0  0  0  0  0  0  0
   -2.8344    6.2667  -20.7935 C   0  0  0  0  0  0  0  0  0  0  0  0
   -3.0378    6.3757  -19.2853 C   0  0  0  0  0  0  0  0  0  0  0  0
   -5.8902    5.0366  -17.2404 C   0  0  0  0  0  0  0  0  0  0  0  0
   -6.8788    4.5517  -18.0121 N   0  0  0  0  0  0  0  0  0  0  0  0
  1  2  1  0
  2  3  2  0
  3  4  1  0
  4  5  1  0
  5  6  2  0
  5  7  1  0
  7  8  1  0
  8  9  2  0
  9 10  1  0
 10 11  2  0
 11 12  1  0
 12 13  2  0
 12 14  1  0
 14 15  1  0
 15 16  1  0
 15 17  1  0
 17 18  1  0
 17 19  1  0
  4 20  2  0
 20 21  1  0
 21 22  2  0
 22 23  1  0
 23 24  1  0
 24 25  1  0
 25 26  1  0
 26 27  1  0
 27 28  1  0
 23 29  1  0
 29 30  2  0
 30  2  1  0
 13  8  1  0
 29 20  1  0
 17 11  1  0
 28 24  1  0
M  END
>  <name>  (176) 
P115431

>  <alias>  (176) 
None

>  <smina_score_min>  (176) 
-8.73

>  <exports>  (176) 
['/opt/xchem-fragalysis-2/maxwin/BulkDock/OUTPUTS/openbind_xx01zvns2b_c2_elabs_1LOUTNY.sdf', '/opt/xchem-fragalysis-2/maxwin/BulkDock/OUTPUTS/openbind_xx01zvns2b_c2_elabs_1LSYIIV.sdf']

>  <tags>  (176) 
syndirella_placed,openbind_xx01zvns2b_c2_elabs,openbind_xx01zvns2b_c2_elabs_scored_6.2plus,syndirella_product,openbind_xx01zvns2b_c2_elabs_scored,openbind_xx01zvns2b_c2_elabs_scored_top80percent,BulkDock Fragalysis export

>  <subsites>  (176) 
1 - Z4590/B/203/1

>  <smiles>  (176) 
Cc1cc(C(=O)Nc2ccc3c(c2)CN(C)C3(C)C)c2cnn(C3CCCC3)c2n1

>  <HIPPO Pose ID>  (176) 
115431

>  <energy_score>  (176) 
-39.371558

>  <inchikey>  (176) 
PFTUHIRMALCLMR-UHFFFAOYSA-N

>  <gnina_score_min>  (176) 
6.239

>  <gnina_score>  (176) 
6.197

>  <ref_mols>  (176) 
Z3556a

>  <HIPPO Compound ID>  (176) 
178345

>  <distance_score>  (176) 
0.617431

>  <rmsd(smina/fragmenstein)>  (176) 
0.7

>  <ref_pdb>  (176) 
Z3556a

>  <inspiration_score>  (176) 
None

$$$$
P115433
     RDKit          3D

 30 34  0  0  0  0  0  0  0  0999 V2000
  -11.5469    2.1637   -5.5178 C   0  0  0  0  0  0  0  0  0  0  0  0
  -10.2117    2.8139   -5.2194 C   0  0  0  0  0  0  0  0  0  0  0  0
   -9.1537    2.3588   -6.2272 C   0  0  0  0  0  0  0  0  0  0  0  0
   -9.3515    3.0289   -7.4984 N   0  0  0  0  0  0  0  0  0  0  0  0
   -8.7180    4.3559   -7.5291 C   0  0  0  0  0  0  0  0  0  0  0  0
   -8.4252    4.5709   -8.9728 C   0  0  0  0  0  0  0  0  0  0  0  0
   -8.1176    5.7442   -9.6236 C   0  0  0  0  0  0  0  0  0  0  0  0
   -7.8705    5.6748  -10.9913 C   0  0  0  0  0  0  0  0  0  0  0  0
   -7.9261    4.4488  -11.6810 C   0  0  0  0  0  0  0  0  0  0  0  0
   -7.6373    4.4112  -13.0419 N   0  0  0  0  0  0  0  0  0  0  0  0
   -7.3320    5.5522  -14.0328 C   0  0  0  0  0  0  0  0  0  0  0  0
   -7.1985    6.6972  -13.8506 O   0  0  0  0  0  0  0  0  0  0  0  0
   -7.1526    5.0614  -15.4011 C   0  0  0  0  0  0  0  0  0  0  0  0
   -8.2180    4.5505  -16.1391 C   0  0  0  0  0  0  0  0  0  0  0  0
   -8.0338    4.3330  -17.5033 C   0  0  0  0  0  0  0  0  0  0  0  0
   -9.1942    3.8596  -18.3320 C   0  0  0  0  0  0  0  0  0  0  0  0
   -6.8692    4.5488  -18.1638 N   0  0  0  0  0  0  0  0  0  0  0  0
   -5.8675    5.0013  -17.3874 C   0  0  0  0  0  0  0  0  0  0  0  0
   -5.9272    5.2752  -16.0345 C   0  0  0  0  0  0  0  0  0  0  0  0
   -4.6433    5.7527  -15.7071 C   0  0  0  0  0  0  0  0  0  0  0  0
   -3.8170    5.7747  -16.7583 N   0  0  0  0  0  0  0  0  0  0  0  0
   -4.5934    5.3260  -17.7777 N   0  0  0  0  0  0  0  0  0  0  0  0
   -4.1012    5.3287  -19.1450 C   0  0  0  0  0  0  0  0  0  0  0  0
   -4.1672    6.7360  -19.7666 C   0  0  0  0  0  0  0  0  0  0  0  0
   -2.7998    6.9739  -20.3963 C   0  0  0  0  0  0  0  0  0  0  0  0
   -1.8532    6.1542  -19.5370 C   0  0  0  0  0  0  0  0  0  0  0  0
   -2.6388    4.8742  -19.2929 C   0  0  0  0  0  0  0  0  0  0  0  0
   -8.2382    3.2660  -11.0058 C   0  0  0  0  0  0  0  0  0  0  0  0
   -8.4885    3.3490   -9.6470 C   0  0  0  0  0  0  0  0  0  0  0  0
   -8.8300    2.2752   -8.6606 C   0  0  0  0  0  0  0  0  0  0  0  0
  1  2  1  0
  2  3  1  0
  3  4  1  0
  4  5  1  0
  5  6  1  0
  6  7  2  0
  7  8  1  0
  8  9  2  0
  9 10  1  0
 10 11  1  0
 11 12  2  0
 11 13  1  0
 13 14  2  0
 14 15  1  0
 15 16  1  0
 15 17  2  0
 17 18  1  0
 18 19  2  0
 19 20  1  0
 20 21  2  0
 21 22  1  0
 22 23  1  0
 23 24  1  0
 24 25  1  0
 25 26  1  0
 26 27  1  0
  9 28  1  0
 28 29  2  0
 29 30  1  0
 30  4  1  0
 29  6  1  0
 19 13  1  0
 27 23  1  0
 22 18  1  0
M  END
>  <name>  (177) 
P115433

>  <alias>  (177) 
None

>  <smina_score_min>  (177) 
-8.414

>  <exports>  (177) 
['/opt/xchem-fragalysis-2/maxwin/BulkDock/OUTPUTS/openbind_xx01zvns2b_c2_elabs_1LOUTNY.sdf', '/opt/xchem-fragalysis-2/maxwin/BulkDock/OUTPUTS/openbind_xx01zvns2b_c2_elabs_1LSYIIV.sdf']

>  <tags>  (177) 
syndirella_placed,openbind_xx01zvns2b_c2_elabs,openbind_xx01zvns2b_c2_elabs_scored_6.2plus,syndirella_product,openbind_xx01zvns2b_c2_elabs_scored,openbind_xx01zvns2b_c2_elabs_scored_top80percent,BulkDock Fragalysis export

>  <subsites>  (177) 
1 - Z4590/B/203/1

>  <smiles>  (177) 
CCCN1Cc2ccc(NC(=O)c3cc(C)nc4c3cnn4C3CCCC3)cc2C1

>  <HIPPO Pose ID>  (177) 
115433

>  <energy_score>  (177) 
-51.491772

>  <inchikey>  (177) 
CRRVNFOQLYWFHI-UHFFFAOYSA-N

>  <gnina_score_min>  (177) 
6.218

>  <gnina_score>  (177) 
6.207

>  <ref_mols>  (177) 
Z3556a

>  <HIPPO Compound ID>  (177) 
178347

>  <distance_score>  (177) 
0.598831

>  <rmsd(smina/fragmenstein)>  (177) 
0.271

>  <ref_pdb>  (177) 
Z3556a

>  <inspiration_score>  (177) 
None

$$$$
P115437
     RDKit          3D

 30 33  0  0  0  0  0  0  0  0999 V2000
   -9.3698    2.5152  -18.1880 C   0  0  0  0  0  0  0  0  0  0  0  0
   -9.2272    3.9943  -18.4165 C   0  0  0  0  0  0  0  0  0  0  0  0
  -10.6098    4.6089  -18.3373 C   0  0  0  0  0  0  0  0  0  0  0  0
   -8.1245    4.5036  -17.5011 C   0  0  0  0  0  0  0  0  0  0  0  0
   -8.3290    4.7040  -16.1302 C   0  0  0  0  0  0  0  0  0  0  0  0
   -7.2685    5.1638  -15.3446 C   0  0  0  0  0  0  0  0  0  0  0  0
   -7.4568    5.6665  -13.9731 C   0  0  0  0  0  0  0  0  0  0  0  0
   -7.2164    6.7958  -13.7957 O   0  0  0  0  0  0  0  0  0  0  0  0
   -7.8530    4.5576  -12.9726 N   0  0  0  0  0  0  0  0  0  0  0  0
   -8.1201    4.6245  -11.6026 C   0  0  0  0  0  0  0  0  0  0  0  0
   -8.0202    5.8562  -10.9277 C   0  0  0  0  0  0  0  0  0  0  0  0
   -8.1726    5.9471   -9.5408 C   0  0  0  0  0  0  0  0  0  0  0  0
   -8.4405    4.7908   -8.8383 C   0  0  0  0  0  0  0  0  0  0  0  0
   -8.5926    3.5680   -9.5142 C   0  0  0  0  0  0  0  0  0  0  0  0
   -8.4240    3.4619  -10.8902 C   0  0  0  0  0  0  0  0  0  0  0  0
   -8.8977    2.4987   -8.5095 C   0  0  0  0  0  0  0  0  0  0  0  0
   -9.2710    3.2724   -7.3067 N   0  0  0  0  0  0  0  0  0  0  0  0
   -9.2236    2.5010   -6.0914 C   0  0  0  0  0  0  0  0  0  0  0  0
   -8.5236    4.5494   -7.3442 C   0  0  0  0  0  0  0  0  0  0  0  0
   -7.0696    4.5182   -6.8256 C   0  0  0  0  0  0  0  0  0  0  0  0
   -9.2578    5.6213   -6.5223 C   0  0  0  0  0  0  0  0  0  0  0  0
   -6.0178    5.3366  -15.9464 C   0  0  0  0  0  0  0  0  0  0  0  0
   -4.7247    5.7672  -15.5851 C   0  0  0  0  0  0  0  0  0  0  0  0
   -3.8723    5.7752  -16.6163 N   0  0  0  0  0  0  0  0  0  0  0  0
   -4.6352    5.3516  -17.6557 N   0  0  0  0  0  0  0  0  0  0  0  0
   -4.1082    5.3321  -19.0146 C   0  0  0  0  0  0  0  0  0  0  0  0
   -4.2988    6.6950  -19.6814 C   0  0  0  0  0  0  0  0  0  0  0  0
   -2.6428    4.8969  -19.0850 C   0  0  0  0  0  0  0  0  0  0  0  0
   -5.9313    5.0763  -17.2996 C   0  0  0  0  0  0  0  0  0  0  0  0
   -6.9266    4.6786  -18.1095 N   0  0  0  0  0  0  0  0  0  0  0  0
  1  2  1  0
  2  3  1  0
  2  4  1  0
  4  5  2  0
  5  6  1  0
  6  7  1  0
  7  8  2  0
  7  9  1  0
  9 10  1  0
 10 11  2  0
 11 12  1  0
 12 13  2  0
 13 14  1  0
 14 15  2  0
 14 16  1  0
 16 17  1  0
 17 18  1  0
 17 19  1  0
 19 20  1  0
 19 21  1  0
  6 22  2  0
 22 23  1  0
 23 24  2  0
 24 25  1  0
 25 26  1  0
 26 27  1  0
 26 28  1  0
 25 29  1  0
 29 30  2  0
 30  4  1  0
 15 10  1  0
 29 22  1  0
 19 13  1  0
M  END
>  <name>  (178) 
P115437

>  <alias>  (178) 
None

>  <smina_score_min>  (178) 
-7.32

>  <exports>  (178) 
['/opt/xchem-fragalysis-2/maxwin/BulkDock/OUTPUTS/openbind_xx01zvns2b_c2_elabs_1LOUTNY.sdf', '/opt/xchem-fragalysis-2/maxwin/BulkDock/OUTPUTS/openbind_xx01zvns2b_c2_elabs_1LSYIIV.sdf']

>  <tags>  (178) 
syndirella_placed,openbind_xx01zvns2b_c2_elabs,openbind_xx01zvns2b_c2_elabs_scored_6.2plus,syndirella_product,openbind_xx01zvns2b_c2_elabs_scored,openbind_xx01zvns2b_c2_elabs_scored_top80percent,BulkDock Fragalysis export

>  <subsites>  (178) 
1 - Z4590/B/203/1

>  <smiles>  (178) 
CC(C)c1cc(C(=O)Nc2ccc3c(c2)CN(C)C3(C)C)c2cnn(C(C)C)c2n1

>  <HIPPO Pose ID>  (178) 
115437

>  <energy_score>  (178) 
-40.509003

>  <inchikey>  (178) 
PODCJJQBXGPCQV-UHFFFAOYSA-N

>  <gnina_score_min>  (178) 
6.217

>  <gnina_score>  (178) 
6.244

>  <ref_mols>  (178) 
Z3556a

>  <HIPPO Compound ID>  (178) 
178355

>  <distance_score>  (178) 
0.632202

>  <rmsd(smina/fragmenstein)>  (178) 
0.339

>  <ref_pdb>  (178) 
Z3556a

>  <inspiration_score>  (178) 
None

$$$$
P115446
     RDKit          3D

 30 34  0  0  0  0  0  0  0  0999 V2000
  -10.5317    2.6554   -5.4528 C   0  0  0  0  0  0  0  0  0  0  0  0
   -9.5537    2.0281   -6.4341 C   0  0  0  0  0  0  0  0  0  0  0  0
   -9.5191    2.8089   -7.6499 N   0  0  0  0  0  0  0  0  0  0  0  0
   -8.7787    4.0781   -7.5287 C   0  0  0  0  0  0  0  0  0  0  0  0
   -8.4165    4.3832   -8.9450 C   0  0  0  0  0  0  0  0  0  0  0  0
   -8.0826    5.5846   -9.5304 C   0  0  0  0  0  0  0  0  0  0  0  0
   -7.8514    5.5903  -10.9064 C   0  0  0  0  0  0  0  0  0  0  0  0
   -7.9424    4.4073  -11.6640 C   0  0  0  0  0  0  0  0  0  0  0  0
   -7.7333    4.4294  -13.0380 N   0  0  0  0  0  0  0  0  0  0  0  0
   -7.3761    5.5969  -13.9772 C   0  0  0  0  0  0  0  0  0  0  0  0
   -7.2758    6.7385  -13.7604 O   0  0  0  0  0  0  0  0  0  0  0  0
   -7.1666    5.1344  -15.3521 C   0  0  0  0  0  0  0  0  0  0  0  0
   -8.2127    4.6224  -16.1180 C   0  0  0  0  0  0  0  0  0  0  0  0
   -7.9902    4.3833  -17.4725 C   0  0  0  0  0  0  0  0  0  0  0  0
   -9.1299    3.9029  -18.3268 C   0  0  0  0  0  0  0  0  0  0  0  0
   -6.8044    4.5823  -18.0990 N   0  0  0  0  0  0  0  0  0  0  0  0
   -5.8253    5.0428  -17.2973 C   0  0  0  0  0  0  0  0  0  0  0  0
   -5.9217    5.3303  -15.9489 C   0  0  0  0  0  0  0  0  0  0  0  0
   -4.6373    5.7758  -15.5804 C   0  0  0  0  0  0  0  0  0  0  0  0
   -3.7706    5.7494  -16.5982 N   0  0  0  0  0  0  0  0  0  0  0  0
   -4.5358    5.3465  -17.6475 N   0  0  0  0  0  0  0  0  0  0  0  0
   -3.9638    5.2305  -18.9772 C   0  0  0  0  0  0  0  0  0  0  0  0
   -4.0244    6.5341  -19.7152 C   0  0  0  0  0  0  0  0  0  0  0  0
   -5.0591    7.0238  -20.4895 C   0  0  0  0  0  0  0  0  0  0  0  0
   -4.7494    8.2847  -21.0744 C   0  0  0  0  0  0  0  0  0  0  0  0
   -3.4939    8.7220  -20.7183 C   0  0  0  0  0  0  0  0  0  0  0  0
   -2.6926    7.6112  -19.6951 S   0  0  0  0  0  0  0  0  0  0  0  0
   -8.2526    3.1928  -11.0515 C   0  0  0  0  0  0  0  0  0  0  0  0
   -8.4961    3.2045   -9.6921 C   0  0  0  0  0  0  0  0  0  0  0  0
   -8.9019    2.0898   -8.7823 C   0  0  0  0  0  0  0  0  0  0  0  0
  1  2  1  0
  2  3  1  0
  3  4  1  0
  4  5  1  0
  5  6  2  0
  6  7  1  0
  7  8  2  0
  8  9  1  0
  9 10  1  0
 10 11  2  0
 10 12  1  0
 12 13  2  0
 13 14  1  0
 14 15  1  0
 14 16  2  0
 16 17  1  0
 17 18  2  0
 18 19  1  0
 19 20  2  0
 20 21  1  0
 21 22  1  0
 22 23  1  0
 23 24  2  0
 24 25  1  0
 25 26  2  0
 26 27  1  0
  8 28  1  0
 28 29  2  0
 29 30  1  0
 30  3  1  0
 29  5  1  0
 18 12  1  0
 27 23  1  0
 21 17  1  0
M  END
>  <name>  (179) 
P115446

>  <alias>  (179) 
None

>  <smina_score_min>  (179) 
-8.511

>  <exports>  (179) 
['/opt/xchem-fragalysis-2/maxwin/BulkDock/OUTPUTS/openbind_xx01zvns2b_c2_elabs_1LOUTNY.sdf', '/opt/xchem-fragalysis-2/maxwin/BulkDock/OUTPUTS/openbind_xx01zvns2b_c2_elabs_1LSYIIV.sdf']

>  <tags>  (179) 
syndirella_placed,openbind_xx01zvns2b_c2_elabs,openbind_xx01zvns2b_c2_elabs_scored_6.2plus,syndirella_product,openbind_xx01zvns2b_c2_elabs_scored,openbind_xx01zvns2b_c2_elabs_scored_top80percent,BulkDock Fragalysis export

>  <subsites>  (179) 
1 - Z4590/B/203/1

>  <smiles>  (179) 
CCN1Cc2ccc(NC(=O)c3cc(C)nc4c3cnn4Cc3cccs3)cc2C1

>  <HIPPO Pose ID>  (179) 
115446

>  <energy_score>  (179) 
-72.623238

>  <inchikey>  (179) 
VIZAFBXXBQUWKT-UHFFFAOYSA-N

>  <gnina_score_min>  (179) 
6.201

>  <gnina_score>  (179) 
6.097

>  <ref_mols>  (179) 
Z3556a

>  <HIPPO Compound ID>  (179) 
178368

>  <distance_score>  (179) 
0.55642

>  <rmsd(smina/fragmenstein)>  (179) 
0.538

>  <ref_pdb>  (179) 
Z3556a

>  <inspiration_score>  (179) 
None

$$$$
P115462
     RDKit          3D

 30 33  0  0  0  0  0  0  0  0999 V2000
   -1.7316    4.8220  -19.3739 C   0  0  0  0  0  0  0  0  0  0  0  0
   -2.7261    5.8809  -19.8143 C   0  0  0  0  0  0  0  0  0  0  0  0
   -4.1760    5.4869  -19.5347 C   0  0  0  0  0  0  0  0  0  0  0  0
   -4.5795    5.4219  -18.1480 N   0  0  0  0  0  0  0  0  0  0  0  0
   -3.8034    5.9240  -17.1531 N   0  0  0  0  0  0  0  0  0  0  0  0
   -4.6047    5.8780  -16.0852 C   0  0  0  0  0  0  0  0  0  0  0  0
   -5.8755    5.3603  -16.3923 C   0  0  0  0  0  0  0  0  0  0  0  0
   -7.0941    5.1547  -15.7592 C   0  0  0  0  0  0  0  0  0  0  0  0
   -7.2595    5.6975  -14.4272 C   0  0  0  0  0  0  0  0  0  0  0  0
   -7.1129    6.8416  -14.2695 O   0  0  0  0  0  0  0  0  0  0  0  0
   -7.6009    4.5921  -13.4242 N   0  0  0  0  0  0  0  0  0  0  0  0
   -7.7368    4.6374  -12.0562 C   0  0  0  0  0  0  0  0  0  0  0  0
   -7.5061    5.8668  -11.4062 C   0  0  0  0  0  0  0  0  0  0  0  0
   -7.5995    5.9744  -10.0372 C   0  0  0  0  0  0  0  0  0  0  0  0
   -7.9452    4.8325   -9.3665 C   0  0  0  0  0  0  0  0  0  0  0  0
   -8.1945    3.6050  -10.0002 C   0  0  0  0  0  0  0  0  0  0  0  0
   -8.0795    3.4813  -11.3611 C   0  0  0  0  0  0  0  0  0  0  0  0
   -8.6191    2.6114   -8.9683 C   0  0  0  0  0  0  0  0  0  0  0  0
   -9.0241    3.5071   -7.8801 N   0  0  0  0  0  0  0  0  0  0  0  0
   -9.1045    2.9281   -6.5793 C   0  0  0  0  0  0  0  0  0  0  0  0
   -9.8373    3.9695   -5.7252 C   0  0  0  0  0  0  0  0  0  0  0  0
  -10.3055    3.3688   -4.4305 C   0  0  0  0  0  0  0  0  0  0  0  0
  -11.1820    2.1568   -4.7678 C   0  0  0  0  0  0  0  0  0  0  0  0
   -9.1168    3.3117   -3.4748 C   0  0  0  0  0  0  0  0  0  0  0  0
   -8.1762    4.6902   -7.9191 C   0  0  0  0  0  0  0  0  0  0  0  0
   -8.1631    4.5990  -16.4478 C   0  0  0  0  0  0  0  0  0  0  0  0
   -7.9841    4.3326  -17.7968 C   0  0  0  0  0  0  0  0  0  0  0  0
   -9.1576    3.8355  -18.5851 C   0  0  0  0  0  0  0  0  0  0  0  0
   -6.8266    4.5388  -18.4754 N   0  0  0  0  0  0  0  0  0  0  0  0
   -5.8272    5.0425  -17.7299 C   0  0  0  0  0  0  0  0  0  0  0  0
  1  2  1  0
  2  3  1  0
  3  4  1  0
  4  5  1  0
  5  6  2  0
  6  7  1  0
  7  8  2  0
  8  9  1  0
  9 10  2  0
  9 11  1  0
 11 12  1  0
 12 13  2  0
 13 14  1  0
 14 15  2  0
 15 16  1  0
 16 17  2  0
 16 18  1  0
 18 19  1  0
 19 20  1  0
 20 21  1  0
 21 22  1  0
 22 23  1  0
 22 24  1  0
 19 25  1  0
  8 26  1  0
 26 27  2  0
 27 28  1  0
 27 29  1  0
 29 30  2  0
 30  4  1  0
 30  7  1  0
 17 12  1  0
 25 15  1  0
M  END
>  <name>  (180) 
P115462

>  <alias>  (180) 
None

>  <smina_score_min>  (180) 
-8.458

>  <exports>  (180) 
['/opt/xchem-fragalysis-2/maxwin/BulkDock/OUTPUTS/openbind_xx01zvns2b_c2_elabs_1LOUTNY.sdf', '/opt/xchem-fragalysis-2/maxwin/BulkDock/OUTPUTS/openbind_xx01zvns2b_c2_elabs_1LSYIIV.sdf']

>  <tags>  (180) 
syndirella_placed,openbind_xx01zvns2b_c2_elabs,openbind_xx01zvns2b_c2_elabs_scored_6.2plus,syndirella_product,openbind_xx01zvns2b_c2_elabs_scored,openbind_xx01zvns2b_c2_elabs_scored_top80percent,BulkDock Fragalysis export

>  <subsites>  (180) 
1 - Z4590/B/203/1

>  <smiles>  (180) 
CCCn1ncc2c(C(=O)Nc3ccc4c(c3)CN(CCC(C)C)C4)cc(C)nc21

>  <HIPPO Pose ID>  (180) 
115462

>  <energy_score>  (180) 
-37.792116

>  <inchikey>  (180) 
UKKQSRBYBNKMDO-UHFFFAOYSA-N

>  <gnina_score_min>  (180) 
6.243

>  <gnina_score>  (180) 
6.106

>  <ref_mols>  (180) 
Z3556a

>  <HIPPO Compound ID>  (180) 
178393

>  <distance_score>  (180) 
0.998426

>  <rmsd(smina/fragmenstein)>  (180) 
0.797

>  <ref_pdb>  (180) 
Z3556a

>  <inspiration_score>  (180) 
None

$$$$
P115464
     RDKit          3D

 30 33  0  0  0  0  0  0  0  0999 V2000
  -12.1707    2.0061   -5.3748 C   0  0  0  0  0  0  0  0  0  0  0  0
  -10.7820    1.7809   -5.8589 C   0  0  0  0  0  0  0  0  0  0  0  0
   -9.9019    2.9394   -5.4361 C   0  0  0  0  0  0  0  0  0  0  0  0
   -8.5494    2.7629   -6.0822 C   0  0  0  0  0  0  0  0  0  0  0  0
   -8.5355    3.3188   -7.4066 N   0  0  0  0  0  0  0  0  0  0  0  0
   -8.5905    2.5122   -8.6221 C   0  0  0  0  0  0  0  0  0  0  0  0
   -8.4239    3.5582   -9.6747 C   0  0  0  0  0  0  0  0  0  0  0  0
   -8.3246    3.4378  -11.0490 C   0  0  0  0  0  0  0  0  0  0  0  0
   -8.1146    4.6113  -11.7826 C   0  0  0  0  0  0  0  0  0  0  0  0
   -7.9022    4.5459  -13.1525 N   0  0  0  0  0  0  0  0  0  0  0  0
   -7.4282    5.6250  -14.1441 C   0  0  0  0  0  0  0  0  0  0  0  0
   -7.2145    6.7602  -13.9815 O   0  0  0  0  0  0  0  0  0  0  0  0
   -7.2157    5.0866  -15.4861 C   0  0  0  0  0  0  0  0  0  0  0  0
   -8.2685    4.5596  -16.2279 C   0  0  0  0  0  0  0  0  0  0  0  0
   -8.0661    4.3245  -17.5846 C   0  0  0  0  0  0  0  0  0  0  0  0
   -9.2231    3.8541  -18.4170 C   0  0  0  0  0  0  0  0  0  0  0  0
   -6.8929    4.5302  -18.2335 N   0  0  0  0  0  0  0  0  0  0  0  0
   -5.9040    4.9964  -17.4483 C   0  0  0  0  0  0  0  0  0  0  0  0
   -5.9792    5.2856  -16.1004 C   0  0  0  0  0  0  0  0  0  0  0  0
   -4.6964    5.7603  -15.7596 C   0  0  0  0  0  0  0  0  0  0  0  0
   -3.8562    5.7657  -16.8006 N   0  0  0  0  0  0  0  0  0  0  0  0
   -4.6321    5.3324  -17.8240 N   0  0  0  0  0  0  0  0  0  0  0  0
   -4.1114    5.3097  -19.1723 C   0  0  0  0  0  0  0  0  0  0  0  0
   -4.4128    6.5811  -19.9675 C   0  0  0  0  0  0  0  0  0  0  0  0
   -3.6727    7.8063  -19.4523 C   0  0  0  0  0  0  0  0  0  0  0  0
   -8.0579    5.8709  -11.1491 C   0  0  0  0  0  0  0  0  0  0  0  0
   -8.1674    5.9865   -9.7725 C   0  0  0  0  0  0  0  0  0  0  0  0
   -8.3320    4.8167   -9.0736 C   0  0  0  0  0  0  0  0  0  0  0  0
   -8.3910    4.6628   -7.6293 C   0  0  0  0  0  0  0  0  0  0  0  0
   -8.3000    5.5714   -6.8255 O   0  0  0  0  0  0  0  0  0  0  0  0
  1  2  1  0
  2  3  1  0
  3  4  1  0
  4  5  1  0
  5  6  1  0
  6  7  1  0
  7  8  2  0
  8  9  1  0
  9 10  1  0
 10 11  1  0
 11 12  2  0
 11 13  1  0
 13 14  2  0
 14 15  1  0
 15 16  1  0
 15 17  2  0
 17 18  1  0
 18 19  2  0
 19 20  1  0
 20 21  2  0
 21 22  1  0
 22 23  1  0
 23 24  1  0
 24 25  1  0
  9 26  2  0
 26 27  1  0
 27 28  2  0
 28 29  1  0
 29 30  2  0
 29  5  1  0
 28  7  1  0
 19 13  1  0
 22 18  1  0
M  END
>  <name>  (181) 
P115464

>  <alias>  (181) 
None

>  <smina_score_min>  (181) 
-7.735

>  <exports>  (181) 
['/opt/xchem-fragalysis-2/maxwin/BulkDock/OUTPUTS/openbind_xx01zvns2b_c2_elabs_1LOUTNY.sdf', '/opt/xchem-fragalysis-2/maxwin/BulkDock/OUTPUTS/openbind_xx01zvns2b_c2_elabs_1LSYIIV.sdf']

>  <tags>  (181) 
syndirella_placed,openbind_xx01zvns2b_c2_elabs,openbind_xx01zvns2b_c2_elabs_scored_6.2plus,syndirella_product,openbind_xx01zvns2b_c2_elabs_scored,openbind_xx01zvns2b_c2_elabs_scored_top80percent,BulkDock Fragalysis export

>  <subsites>  (181) 
1 - Z4590/B/203/1

>  <smiles>  (181) 
CCCCN1Cc2cc(NC(=O)c3cc(C)nc4c3cnn4CCC)ccc2C1=O

>  <HIPPO Pose ID>  (181) 
115464

>  <energy_score>  (181) 
-25.449862

>  <inchikey>  (181) 
OGOKRKBZDXYEHS-UHFFFAOYSA-N

>  <gnina_score_min>  (181) 
6.202

>  <gnina_score>  (181) 
6.048

>  <ref_mols>  (181) 
Z3556a

>  <HIPPO Compound ID>  (181) 
178395

>  <distance_score>  (181) 
0.703736

>  <rmsd(smina/fragmenstein)>  (181) 
1.035

>  <ref_pdb>  (181) 
Z3556a

>  <inspiration_score>  (181) 
None

$$$$
P115471
     RDKit          3D

 30 33  0  0  0  0  0  0  0  0999 V2000
   -4.2805    5.5787  -21.5409 C   0  0  0  0  0  0  0  0  0  0  0  0
   -4.9002    5.3229  -20.1738 C   0  0  0  0  0  0  0  0  0  0  0  0
   -3.9628    5.6167  -18.9847 C   0  0  2  0  0  0  0  0  0  0  0  0
   -2.6362    4.8487  -19.0480 C   0  0  0  0  0  0  0  0  0  0  0  0
   -4.5752    5.4885  -17.6582 N   0  0  0  0  0  0  0  0  0  0  0  0
   -3.8609    5.9512  -16.5930 N   0  0  0  0  0  0  0  0  0  0  0  0
   -4.7147    5.8606  -15.5720 C   0  0  0  0  0  0  0  0  0  0  0  0
   -5.9607    5.3345  -15.9530 C   0  0  0  0  0  0  0  0  0  0  0  0
   -7.1971    5.0724  -15.3559 C   0  0  0  0  0  0  0  0  0  0  0  0
   -7.4330    5.5681  -13.9965 C   0  0  0  0  0  0  0  0  0  0  0  0
   -7.3325    6.7178  -13.8230 O   0  0  0  0  0  0  0  0  0  0  0  0
   -7.7060    4.4265  -12.9970 N   0  0  0  0  0  0  0  0  0  0  0  0
   -7.9965    4.4663  -11.6360 C   0  0  0  0  0  0  0  0  0  0  0  0
   -7.9284    5.6933  -10.9495 C   0  0  0  0  0  0  0  0  0  0  0  0
   -8.1229    5.7623   -9.5731 C   0  0  0  0  0  0  0  0  0  0  0  0
   -8.3819    4.5863   -8.9047 C   0  0  0  0  0  0  0  0  0  0  0  0
   -8.4860    3.3674   -9.5807 C   0  0  0  0  0  0  0  0  0  0  0  0
   -8.2963    3.2864  -10.9512 C   0  0  0  0  0  0  0  0  0  0  0  0
   -8.8180    2.2900   -8.5977 C   0  0  0  0  0  0  0  0  0  0  0  0
   -8.6346    2.9399   -7.2958 N   0  0  0  0  0  0  0  0  0  0  0  0
   -9.3681    2.3815   -6.1747 C   0  0  0  0  0  0  0  0  0  0  0  0
  -10.8215    2.7933   -5.9819 C   0  0  0  0  0  0  0  0  0  0  0  0
  -11.3948    2.0829   -4.9780 F   0  0  0  0  0  0  0  0  0  0  0  0
  -10.8820    4.0966   -5.5956 F   0  0  0  0  0  0  0  0  0  0  0  0
   -8.6045    4.3864   -7.4443 C   0  0  0  0  0  0  0  0  0  0  0  0
   -8.2228    4.5327  -16.1246 C   0  0  0  0  0  0  0  0  0  0  0  0
   -7.9888    4.3318  -17.4819 C   0  0  0  0  0  0  0  0  0  0  0  0
   -9.1118    3.8396  -18.3509 C   0  0  0  0  0  0  0  0  0  0  0  0
   -6.8148    4.5971  -18.1055 N   0  0  0  0  0  0  0  0  0  0  0  0
   -5.8442    5.0838  -17.3091 C   0  0  0  0  0  0  0  0  0  0  0  0
  1  2  1  0
  2  3  1  0
  3  4  1  1
  3  5  1  0
  5  6  1  0
  6  7  2  0
  7  8  1  0
  8  9  2  0
  9 10  1  0
 10 11  2  0
 10 12  1  0
 12 13  1  0
 13 14  2  0
 14 15  1  0
 15 16  2  0
 16 17  1  0
 17 18  2  0
 17 19  1  0
 19 20  1  0
 20 21  1  0
 21 22  1  0
 22 23  1  0
 22 24  1  0
 20 25  1  0
  9 26  1  0
 26 27  2  0
 27 28  1  0
 27 29  1  0
 29 30  2  0
 30  5  1  0
 30  8  1  0
 18 13  1  0
 25 16  1  0
M  END
>  <name>  (182) 
P115471

>  <alias>  (182) 
None

>  <smina_score_min>  (182) 
-8.887

>  <exports>  (182) 
['/opt/xchem-fragalysis-2/maxwin/BulkDock/OUTPUTS/openbind_xx01zvns2b_c2_elabs_1LOUTNY.sdf', '/opt/xchem-fragalysis-2/maxwin/BulkDock/OUTPUTS/openbind_xx01zvns2b_c2_elabs_1LSYIIV.sdf']

>  <tags>  (182) 
syndirella_placed,openbind_xx01zvns2b_c2_elabs,openbind_xx01zvns2b_c2_elabs_scored_6.2plus,syndirella_product,openbind_xx01zvns2b_c2_elabs_scored,openbind_xx01zvns2b_c2_elabs_scored_top80percent,BulkDock Fragalysis export

>  <subsites>  (182) 
1 - Z4590/B/203/1

>  <smiles>  (182) 
CC[C@H](C)n1ncc2c(C(=O)Nc3ccc4c(c3)CN(CC(F)F)C4)cc(C)nc21

>  <HIPPO Pose ID>  (182) 
115471

>  <energy_score>  (182) 
-38.205863

>  <inchikey>  (182) 
UDTQTOIDJIYGJJ-AWEZNQCLSA-N

>  <gnina_score_min>  (182) 
6.253

>  <gnina_score>  (182) 
6.187

>  <ref_mols>  (182) 
Z3556a

>  <HIPPO Compound ID>  (182) 
178402

>  <distance_score>  (182) 
0.581035

>  <rmsd(smina/fragmenstein)>  (182) 
0.415

>  <ref_pdb>  (182) 
Z3556a

>  <inspiration_score>  (182) 
None

$$$$
P115473
     RDKit          3D

 30 33  0  0  0  0  0  0  0  0999 V2000
   -7.2821    3.7804   -4.4815 C   0  0  0  0  0  0  0  0  0  0  0  0
   -8.6821    4.3391   -4.3309 C   0  0  0  0  0  0  0  0  0  0  0  0
   -9.8299    3.6093   -5.0415 C   0  0  0  0  0  0  0  0  0  0  0  0
   -9.5894    2.7394   -6.2837 C   0  0  0  0  0  0  0  0  0  0  0  0
   -8.6661    3.2400   -7.2787 N   0  0  0  0  0  0  0  0  0  0  0  0
   -8.7028    4.6682   -7.5527 C   0  0  0  0  0  0  0  0  0  0  0  0
   -8.4282    4.7828   -9.0061 C   0  0  0  0  0  0  0  0  0  0  0  0
   -8.1941    5.9321   -9.7254 C   0  0  0  0  0  0  0  0  0  0  0  0
   -7.9466    5.7963  -11.0837 C   0  0  0  0  0  0  0  0  0  0  0  0
   -7.9525    4.5323  -11.7018 C   0  0  0  0  0  0  0  0  0  0  0  0
   -7.6565    4.4448  -13.0569 N   0  0  0  0  0  0  0  0  0  0  0  0
   -7.3409    5.5478  -14.0860 C   0  0  0  0  0  0  0  0  0  0  0  0
   -7.2035    6.6979  -13.9443 O   0  0  0  0  0  0  0  0  0  0  0  0
   -7.1781    5.0154  -15.4373 C   0  0  0  0  0  0  0  0  0  0  0  0
   -8.2654    4.5086  -16.1463 C   0  0  0  0  0  0  0  0  0  0  0  0
   -8.1178    4.2893  -17.5129 C   0  0  0  0  0  0  0  0  0  0  0  0
   -9.3011    3.8412  -18.3199 C   0  0  0  0  0  0  0  0  0  0  0  0
   -6.9663    4.4863  -18.1961 N   0  0  0  0  0  0  0  0  0  0  0  0
   -5.9476    4.9461  -17.4496 C   0  0  0  0  0  0  0  0  0  0  0  0
   -5.9673    5.2250  -16.0987 C   0  0  0  0  0  0  0  0  0  0  0  0
   -4.6770    5.7151  -15.8149 C   0  0  0  0  0  0  0  0  0  0  0  0
   -3.8884    5.7537  -16.8960 N   0  0  0  0  0  0  0  0  0  0  0  0
   -4.7014    5.3103  -17.8893 N   0  0  0  0  0  0  0  0  0  0  0  0
   -4.3142    5.4159  -19.2943 C   0  0  1  0  0  0  0  0  0  0  0  0
   -4.7613    6.7768  -19.8425 C   0  0  0  0  0  0  0  0  0  0  0  0
   -2.8136    5.1576  -19.5231 C   0  0  0  0  0  0  0  0  0  0  0  0
   -2.4494    5.0571  -20.9987 C   0  0  0  0  0  0  0  0  0  0  0  0
   -8.2174    3.3761  -10.9629 C   0  0  0  0  0  0  0  0  0  0  0  0
   -8.4395    3.5227   -9.6037 C   0  0  0  0  0  0  0  0  0  0  0  0
   -8.7311    2.4922   -8.5585 C   0  0  0  0  0  0  0  0  0  0  0  0
  1  2  1  0
  2  3  1  0
  3  4  1  0
  4  5  1  0
  5  6  1  0
  6  7  1  0
  7  8  2  0
  8  9  1  0
  9 10  2  0
 10 11  1  0
 11 12  1  0
 12 13  2  0
 12 14  1  0
 14 15  2  0
 15 16  1  0
 16 17  1  0
 16 18  2  0
 18 19  1  0
 19 20  2  0
 20 21  1  0
 21 22  2  0
 22 23  1  0
 23 24  1  0
 24 25  1  1
 24 26  1  0
 26 27  1  0
 10 28  1  0
 28 29  2  0
 29 30  1  0
 30  5  1  0
 29  7  1  0
 20 14  1  0
 23 19  1  0
M  END
>  <name>  (183) 
P115473

>  <alias>  (183) 
None

>  <smina_score_min>  (183) 
-8.355

>  <exports>  (183) 
['/opt/xchem-fragalysis-2/maxwin/BulkDock/OUTPUTS/openbind_xx01zvns2b_c2_elabs_1LOUTNY.sdf', '/opt/xchem-fragalysis-2/maxwin/BulkDock/OUTPUTS/openbind_xx01zvns2b_c2_elabs_1LSYIIV.sdf']

>  <tags>  (183) 
syndirella_placed,openbind_xx01zvns2b_c2_elabs,openbind_xx01zvns2b_c2_elabs_scored_6.2plus,syndirella_product,openbind_xx01zvns2b_c2_elabs_scored,openbind_xx01zvns2b_c2_elabs_scored_top80percent,BulkDock Fragalysis export

>  <subsites>  (183) 
1 - Z4590/B/203/1

>  <smiles>  (183) 
CCCCN1Cc2ccc(NC(=O)c3cc(C)nc4c3cnn4[C@@H](C)CC)cc2C1

>  <HIPPO Pose ID>  (183) 
115473

>  <energy_score>  (183) 
-64.103639

>  <inchikey>  (183) 
RZGUQRBXCUMYTP-KRWDZBQOSA-N

>  <gnina_score_min>  (183) 
6.266

>  <gnina_score>  (183) 
6.161

>  <ref_mols>  (183) 
Z3556a

>  <HIPPO Compound ID>  (183) 
178403

>  <distance_score>  (183) 
0.666415

>  <rmsd(smina/fragmenstein)>  (183) 
0.746

>  <ref_pdb>  (183) 
Z3556a

>  <inspiration_score>  (183) 
None

$$$$
P115478
     RDKit          3D

 30 34  0  0  0  0  0  0  0  0999 V2000
   -8.9006    4.5441   -3.9885 C   0  0  0  0  0  0  0  0  0  0  0  0
   -9.8003    3.4504   -3.9959 O   0  0  0  0  0  0  0  0  0  0  0  0
  -10.2967    3.1041   -5.2969 C   0  0  0  0  0  0  0  0  0  0  0  0
   -9.2644    2.4130   -6.2059 C   0  0  0  0  0  0  0  0  0  0  0  0
   -9.0989    3.0555   -7.4969 N   0  0  0  0  0  0  0  0  0  0  0  0
   -8.7948    2.2892   -8.7061 C   0  0  0  0  0  0  0  0  0  0  0  0
   -8.4483    3.3659   -9.6886 C   0  0  0  0  0  0  0  0  0  0  0  0
   -8.1476    3.3146  -11.0431 C   0  0  0  0  0  0  0  0  0  0  0  0
   -7.8265    4.5200  -11.6925 C   0  0  0  0  0  0  0  0  0  0  0  0
   -7.4432    4.5271  -13.0324 N   0  0  0  0  0  0  0  0  0  0  0  0
   -6.9840    5.6928  -13.9396 C   0  0  0  0  0  0  0  0  0  0  0  0
   -6.7814    6.8149  -13.6863 O   0  0  0  0  0  0  0  0  0  0  0  0
   -6.7133    5.2626  -15.3113 C   0  0  0  0  0  0  0  0  0  0  0  0
   -7.7333    4.8350  -16.1566 C   0  0  0  0  0  0  0  0  0  0  0  0
   -7.4513    4.5900  -17.5086 C   0  0  0  0  0  0  0  0  0  0  0  0
   -8.4773    4.0717  -18.4724 C   0  0  0  0  0  0  0  0  0  0  0  0
   -9.3931    2.9858  -18.0081 C   0  0  0  0  0  0  0  0  0  0  0  0
   -9.9459    4.3345  -18.3503 C   0  0  0  0  0  0  0  0  0  0  0  0
   -6.2217    4.7579  -18.0413 N   0  0  0  0  0  0  0  0  0  0  0  0
   -5.2764    5.1463  -17.1790 C   0  0  0  0  0  0  0  0  0  0  0  0
   -5.4313    5.4126  -15.8348 C   0  0  0  0  0  0  0  0  0  0  0  0
   -4.1471    5.7954  -15.4023 C   0  0  0  0  0  0  0  0  0  0  0  0
   -3.2363    5.7456  -16.3828 N   0  0  0  0  0  0  0  0  0  0  0  0
   -3.9592    5.3576  -17.4581 N   0  0  0  0  0  0  0  0  0  0  0  0
   -3.3228    5.2017  -18.7402 C   0  0  0  0  0  0  0  0  0  0  0  0
   -7.8390    5.7425  -10.9906 C   0  0  0  0  0  0  0  0  0  0  0  0
   -8.1361    5.7888   -9.6372 C   0  0  0  0  0  0  0  0  0  0  0  0
   -8.4236    4.5909   -9.0265 C   0  0  0  0  0  0  0  0  0  0  0  0
   -8.7534    4.3829   -7.6271 C   0  0  0  0  0  0  0  0  0  0  0  0
   -8.7083    5.2692   -6.7958 O   0  0  0  0  0  0  0  0  0  0  0  0
  1  2  1  0
  2  3  1  0
  3  4  1  0
  4  5  1  0
  5  6  1  0
  6  7  1  0
  7  8  2  0
  8  9  1  0
  9 10  1  0
 10 11  1  0
 11 12  2  0
 11 13  1  0
 13 14  2  0
 14 15  1  0
 15 16  1  0
 16 17  1  0
 17 18  1  0
 15 19  2  0
 19 20  1  0
 20 21  2  0
 21 22  1  0
 22 23  2  0
 23 24  1  0
 24 25  1  0
  9 26  2  0
 26 27  1  0
 27 28  2  0
 28 29  1  0
 29 30  2  0
 29  5  1  0
 28  7  1  0
 21 13  1  0
 18 16  1  0
 24 20  1  0
M  END
>  <name>  (184) 
P115478

>  <alias>  (184) 
None

>  <smina_score_min>  (184) 
-7.681

>  <exports>  (184) 
['/opt/xchem-fragalysis-2/maxwin/BulkDock/OUTPUTS/openbind_xx01zvns2b_c2_elabs_1LOUTNY.sdf', '/opt/xchem-fragalysis-2/maxwin/BulkDock/OUTPUTS/openbind_xx01zvns2b_c2_elabs_1LSYIIV.sdf']

>  <tags>  (184) 
syndirella_placed,openbind_xx01zvns2b_c2_elabs,openbind_xx01zvns2b_c2_elabs_scored_6.2plus,syndirella_product,openbind_xx01zvns2b_c2_elabs_scored,openbind_xx01zvns2b_c2_elabs_scored_top80percent,BulkDock Fragalysis export

>  <subsites>  (184) 
1 - Z4590/B/203/1

>  <smiles>  (184) 
COCCN1Cc2cc(NC(=O)c3cc(C4CC4)nc4c3cnn4C)ccc2C1=O

>  <HIPPO Pose ID>  (184) 
115478

>  <energy_score>  (184) 
-9.935096

>  <inchikey>  (184) 
PHIZFVKCJYVXOA-UHFFFAOYSA-N

>  <gnina_score_min>  (184) 
6.269

>  <gnina_score>  (184) 
6.068

>  <ref_mols>  (184) 
Z3556a

>  <HIPPO Compound ID>  (184) 
178408

>  <distance_score>  (184) 
0.794052

>  <rmsd(smina/fragmenstein)>  (184) 
0.68

>  <ref_pdb>  (184) 
Z3556a

>  <inspiration_score>  (184) 
None

$$$$
P115485
     RDKit          3D

 30 34  0  0  0  0  0  0  0  0999 V2000
  -12.2352    2.0609   -5.2243 C   0  0  0  0  0  0  0  0  0  0  0  0
  -10.8192    2.5224   -5.3393 C   0  0  0  0  0  0  0  0  0  0  0  0
  -10.2353    1.7867   -6.5151 C   0  0  0  0  0  0  0  0  0  0  0  0
   -8.7727    2.0733   -6.6377 C   0  0  0  0  0  0  0  0  0  0  0  0
   -8.5335    2.8703   -7.7992 N   0  0  0  0  0  0  0  0  0  0  0  0
   -8.4432    2.2462   -9.1008 C   0  0  0  0  0  0  0  0  0  0  0  0
   -8.2625    3.4294   -9.9769 C   0  0  0  0  0  0  0  0  0  0  0  0
   -8.0033    3.4740  -11.3285 C   0  0  0  0  0  0  0  0  0  0  0  0
   -7.7719    4.7283  -11.8961 C   0  0  0  0  0  0  0  0  0  0  0  0
   -7.3625    4.7702  -13.2193 N   0  0  0  0  0  0  0  0  0  0  0  0
   -7.0215    5.9679  -14.1225 C   0  0  0  0  0  0  0  0  0  0  0  0
   -6.9562    7.1048  -13.8768 O   0  0  0  0  0  0  0  0  0  0  0  0
   -6.7225    5.5055  -15.4738 C   0  0  0  0  0  0  0  0  0  0  0  0
   -7.7299    4.9999  -16.2883 C   0  0  0  0  0  0  0  0  0  0  0  0
   -7.4334    4.6434  -17.6072 C   0  0  0  0  0  0  0  0  0  0  0  0
   -8.4637    4.0671  -18.5317 C   0  0  0  0  0  0  0  0  0  0  0  0
   -9.9326    4.3404  -18.4062 C   0  0  0  0  0  0  0  0  0  0  0  0
   -9.3803    3.0065  -18.0094 C   0  0  0  0  0  0  0  0  0  0  0  0
   -6.1928    4.7590  -18.1285 N   0  0  0  0  0  0  0  0  0  0  0  0
   -5.2563    5.2097  -17.2857 C   0  0  0  0  0  0  0  0  0  0  0  0
   -5.4300    5.5934  -15.9728 C   0  0  0  0  0  0  0  0  0  0  0  0
   -4.1474    5.9767  -15.5409 C   0  0  0  0  0  0  0  0  0  0  0  0
   -3.2207    5.8407  -16.4979 N   0  0  0  0  0  0  0  0  0  0  0  0
   -3.9318    5.3830  -17.5555 N   0  0  0  0  0  0  0  0  0  0  0  0
   -3.2796    5.1328  -18.8139 C   0  0  0  0  0  0  0  0  0  0  0  0
   -7.8740    5.9077  -11.1317 C   0  0  0  0  0  0  0  0  0  0  0  0
   -8.1675    5.8537   -9.7712 C   0  0  0  0  0  0  0  0  0  0  0  0
   -8.3339    4.6030   -9.2240 C   0  0  0  0  0  0  0  0  0  0  0  0
   -8.5437    4.2418   -7.8241 C   0  0  0  0  0  0  0  0  0  0  0  0
   -8.6834    5.0344   -6.9122 O   0  0  0  0  0  0  0  0  0  0  0  0
  1  2  1  0
  2  3  1  0
  3  4  1  0
  4  5  1  0
  5  6  1  0
  6  7  1  0
  7  8  2  0
  8  9  1  0
  9 10  1  0
 10 11  1  0
 11 12  2  0
 11 13  1  0
 13 14  2  0
 14 15  1  0
 15 16  1  0
 16 17  1  0
 17 18  1  0
 15 19  2  0
 19 20  1  0
 20 21  2  0
 21 22  1  0
 22 23  2  0
 23 24  1  0
 24 25  1  0
  9 26  2  0
 26 27  1  0
 27 28  2  0
 28 29  1  0
 29 30  2  0
 29  5  1  0
 28  7  1  0
 21 13  1  0
 18 16  1  0
 24 20  1  0
M  END
>  <name>  (185) 
P115485

>  <alias>  (185) 
None

>  <smina_score_min>  (185) 
-7.689

>  <exports>  (185) 
['/opt/xchem-fragalysis-2/maxwin/BulkDock/OUTPUTS/openbind_xx01zvns2b_c2_elabs_1LOUTNY.sdf', '/opt/xchem-fragalysis-2/maxwin/BulkDock/OUTPUTS/openbind_xx01zvns2b_c2_elabs_1LSYIIV.sdf']

>  <tags>  (185) 
syndirella_placed,openbind_xx01zvns2b_c2_elabs,openbind_xx01zvns2b_c2_elabs_scored_6.2plus,syndirella_product,openbind_xx01zvns2b_c2_elabs_scored,openbind_xx01zvns2b_c2_elabs_scored_top80percent,BulkDock Fragalysis export

>  <subsites>  (185) 
1 - Z4590/B/203/1

>  <smiles>  (185) 
CCCCN1Cc2cc(NC(=O)c3cc(C4CC4)nc4c3cnn4C)ccc2C1=O

>  <HIPPO Pose ID>  (185) 
115485

>  <energy_score>  (185) 
-9.807288

>  <inchikey>  (185) 
JWDAMFOLAQPDOM-UHFFFAOYSA-N

>  <gnina_score_min>  (185) 
6.23

>  <gnina_score>  (185) 
6.097

>  <ref_mols>  (185) 
Z3556a

>  <HIPPO Compound ID>  (185) 
178414

>  <distance_score>  (185) 
0.946064

>  <rmsd(smina/fragmenstein)>  (185) 
1.224

>  <ref_pdb>  (185) 
Z3556a

>  <inspiration_score>  (185) 
None

$$$$
P115492
     RDKit          3D

 30 33  0  0  0  0  0  0  0  0999 V2000
   -4.7768    8.7445  -20.4323 C   0  0  0  0  0  0  0  0  0  0  0  0
   -5.0149    7.4113  -19.7404 C   0  0  0  0  0  0  0  0  0  0  0  0
   -3.7293    6.5822  -19.6734 C   0  0  0  0  0  0  0  0  0  0  0  0
   -3.9404    5.2022  -19.0477 C   0  0  0  0  0  0  0  0  0  0  0  0
   -4.2952    5.2534  -17.6457 N   0  0  0  0  0  0  0  0  0  0  0  0
   -3.3588    5.5618  -16.7231 N   0  0  0  0  0  0  0  0  0  0  0  0
   -4.0369    5.5736  -15.5661 C   0  0  0  0  0  0  0  0  0  0  0  0
   -3.3261    5.8962  -14.3031 C   0  0  0  0  0  0  0  0  0  0  0  0
   -5.4074    5.2560  -15.7541 C   0  0  0  0  0  0  0  0  0  0  0  0
   -6.5679    5.1333  -14.9876 C   0  0  0  0  0  0  0  0  0  0  0  0
   -6.5604    5.5038  -13.5555 C   0  0  0  0  0  0  0  0  0  0  0  0
   -6.2270    6.5873  -13.2717 O   0  0  0  0  0  0  0  0  0  0  0  0
   -7.1158    4.3594  -12.6701 N   0  0  0  0  0  0  0  0  0  0  0  0
   -7.4529    4.3435  -11.3185 C   0  0  0  0  0  0  0  0  0  0  0  0
   -7.4485    5.5314  -10.5634 C   0  0  0  0  0  0  0  0  0  0  0  0
   -7.8899    5.5400   -9.2383 C   0  0  0  0  0  0  0  0  0  0  0  0
   -8.3132    4.3414   -8.7029 C   0  0  0  0  0  0  0  0  0  0  0  0
   -8.3175    3.1536   -9.4309 C   0  0  0  0  0  0  0  0  0  0  0  0
   -7.8944    3.1393  -10.7506 C   0  0  0  0  0  0  0  0  0  0  0  0
   -8.8526    2.0469   -8.5849 C   0  0  0  0  0  0  0  0  0  0  0  0
   -9.1824    2.7330   -7.3465 N   0  0  0  0  0  0  0  0  0  0  0  0
   -9.9841    2.1089   -6.3286 C   0  0  0  0  0  0  0  0  0  0  0  0
   -8.8842    4.0784   -7.3770 C   0  0  0  0  0  0  0  0  0  0  0  0
   -9.0872    4.9306   -6.5313 O   0  0  0  0  0  0  0  0  0  0  0  0
   -7.7610    4.8020  -15.6481 C   0  0  0  0  0  0  0  0  0  0  0  0
   -9.2226    4.8351  -14.7539 Cl  0  0  0  0  0  0  0  0  0  0  0  0
   -7.7490    4.5442  -17.0261 C   0  0  0  0  0  0  0  0  0  0  0  0
   -8.9714    4.0704  -17.7717 C   0  0  0  0  0  0  0  0  0  0  0  0
   -6.6393    4.6709  -17.7900 N   0  0  0  0  0  0  0  0  0  0  0  0
   -5.5329    5.0287  -17.1149 C   0  0  0  0  0  0  0  0  0  0  0  0
  1  2  1  0
  2  3  1  0
  3  4  1  0
  4  5  1  0
  5  6  1  0
  6  7  2  0
  7  8  1  0
  7  9  1  0
  9 10  2  0
 10 11  1  0
 11 12  2  0
 11 13  1  0
 13 14  1  0
 14 15  2  0
 15 16  1  0
 16 17  2  0
 17 18  1  0
 18 19  2  0
 18 20  1  0
 20 21  1  0
 21 22  1  0
 21 23  1  0
 23 24  2  0
 10 25  1  0
 25 26  1  0
 25 27  2  0
 27 28  1  0
 27 29  1  0
 29 30  2  0
 30  5  1  0
 30  9  1  0
 19 14  1  0
 23 17  1  0
M  END
>  <name>  (186) 
P115492

>  <alias>  (186) 
None

>  <smina_score_min>  (186) 
-7.196

>  <exports>  (186) 
['/opt/xchem-fragalysis-2/maxwin/BulkDock/OUTPUTS/openbind_xx01zvns2b_c2_elabs_1LOUTNY.sdf', '/opt/xchem-fragalysis-2/maxwin/BulkDock/OUTPUTS/openbind_xx01zvns2b_c2_elabs_1LSYIIV.sdf']

>  <tags>  (186) 
syndirella_placed,openbind_xx01zvns2b_c2_elabs,openbind_xx01zvns2b_c2_elabs_scored_6.2plus,syndirella_product,openbind_xx01zvns2b_c2_elabs_scored,openbind_xx01zvns2b_c2_elabs_scored_top80percent,BulkDock Fragalysis export

>  <subsites>  (186) 
1 - Z4590/B/203/1

>  <smiles>  (186) 
CCCCn1nc(C)c2c(C(=O)Nc3ccc4c(c3)CN(C)C4=O)c(Cl)c(C)nc21

>  <HIPPO Pose ID>  (186) 
115492

>  <energy_score>  (186) 
-43.131405

>  <inchikey>  (186) 
RUXOLKUHSLKFAK-UHFFFAOYSA-N

>  <gnina_score_min>  (186) 
6.293

>  <gnina_score>  (186) 
6.216

>  <ref_mols>  (186) 
Z3556a

>  <HIPPO Compound ID>  (186) 
178420

>  <distance_score>  (186) 
0.693365

>  <rmsd(smina/fragmenstein)>  (186) 
1.175

>  <ref_pdb>  (186) 
Z3556a

>  <inspiration_score>  (186) 
None

$$$$
P115493
     RDKit          3D

 30 33  0  0  0  0  0  0  0  0999 V2000
   -5.1617    6.7325  -21.3231 C   0  0  0  0  0  0  0  0  0  0  0  0
   -4.6104    7.2672  -20.0090 C   0  0  0  0  0  0  0  0  0  0  0  0
   -3.4416    6.4290  -19.4869 C   0  0  0  0  0  0  0  0  0  0  0  0
   -3.8676    5.0943  -18.8706 C   0  0  0  0  0  0  0  0  0  0  0  0
   -4.2811    5.2045  -17.4863 N   0  0  0  0  0  0  0  0  0  0  0  0
   -3.3497    5.4556  -16.5432 N   0  0  0  0  0  0  0  0  0  0  0  0
   -4.0423    5.4515  -15.3949 C   0  0  0  0  0  0  0  0  0  0  0  0
   -3.3266    5.6961  -14.1162 C   0  0  0  0  0  0  0  0  0  0  0  0
   -5.4228    5.1811  -15.6071 C   0  0  0  0  0  0  0  0  0  0  0  0
   -6.5959    5.0606  -14.8465 C   0  0  0  0  0  0  0  0  0  0  0  0
   -6.5799    5.4112  -13.4009 C   0  0  0  0  0  0  0  0  0  0  0  0
   -6.0745    6.4285  -13.1187 O   0  0  0  0  0  0  0  0  0  0  0  0
   -7.3090    4.3646  -12.5072 N   0  0  0  0  0  0  0  0  0  0  0  0
   -7.6377    4.4021  -11.1404 C   0  0  0  0  0  0  0  0  0  0  0  0
   -8.2288    3.2647  -10.5601 C   0  0  0  0  0  0  0  0  0  0  0  0
   -8.5222    3.3043   -9.2007 C   0  0  0  0  0  0  0  0  0  0  0  0
   -8.2442    4.4145   -8.4058 C   0  0  0  0  0  0  0  0  0  0  0  0
   -7.7175    5.5556   -8.9702 C   0  0  0  0  0  0  0  0  0  0  0  0
   -7.4249    5.5426  -10.3362 C   0  0  0  0  0  0  0  0  0  0  0  0
   -6.9324    6.6789  -10.8431 F   0  0  0  0  0  0  0  0  0  0  0  0
   -8.5644    4.1296   -6.9796 C   0  0  0  0  0  0  0  0  0  0  0  0
   -9.1664    2.8298   -7.0422 N   0  0  0  0  0  0  0  0  0  0  0  0
   -9.1119    2.2901   -8.3121 C   0  0  0  0  0  0  0  0  0  0  0  0
   -9.5106    1.1896   -8.6166 O   0  0  0  0  0  0  0  0  0  0  0  0
   -7.7830    4.7795  -15.5379 C   0  0  0  0  0  0  0  0  0  0  0  0
   -9.2609    4.8633  -14.6763 Cl  0  0  0  0  0  0  0  0  0  0  0  0
   -7.7553    4.5510  -16.9247 C   0  0  0  0  0  0  0  0  0  0  0  0
   -8.9711    4.0940  -17.6929 C   0  0  0  0  0  0  0  0  0  0  0  0
   -6.6367    4.6832  -17.6788 N   0  0  0  0  0  0  0  0  0  0  0  0
   -5.5337    5.0040  -16.9795 C   0  0  0  0  0  0  0  0  0  0  0  0
  1  2  1  0
  2  3  1  0
  3  4  1  0
  4  5  1  0
  5  6  1  0
  6  7  2  0
  7  8  1  0
  7  9  1  0
  9 10  2  0
 10 11  1  0
 11 12  2  0
 11 13  1  0
 13 14  1  0
 14 15  2  0
 15 16  1  0
 16 17  2  0
 17 18  1  0
 18 19  2  0
 19 20  1  0
 17 21  1  0
 21 22  1  0
 22 23  1  0
 23 24  2  0
 10 25  1  0
 25 26  1  0
 25 27  2  0
 27 28  1  0
 27 29  1  0
 29 30  2  0
 30  5  1  0
 30  9  1  0
 19 14  1  0
 23 16  1  0
M  END
>  <name>  (187) 
P115493

>  <alias>  (187) 
None

>  <smina_score_min>  (187) 
-7.171

>  <exports>  (187) 
['/opt/xchem-fragalysis-2/maxwin/BulkDock/OUTPUTS/openbind_xx01zvns2b_c2_elabs_1LOUTNY.sdf', '/opt/xchem-fragalysis-2/maxwin/BulkDock/OUTPUTS/openbind_xx01zvns2b_c2_elabs_1LSYIIV.sdf']

>  <tags>  (187) 
syndirella_placed,openbind_xx01zvns2b_c2_elabs,openbind_xx01zvns2b_c2_elabs_scored_6.2plus,syndirella_product,openbind_xx01zvns2b_c2_elabs_scored,openbind_xx01zvns2b_c2_elabs_scored_top80percent,BulkDock Fragalysis export

>  <subsites>  (187) 
1 - Z4590/B/203/1

>  <smiles>  (187) 
CCCCn1nc(C)c2c(C(=O)Nc3cc4c(cc3F)CNC4=O)c(Cl)c(C)nc21

>  <HIPPO Pose ID>  (187) 
115493

>  <energy_score>  (187) 
-29.302526

>  <inchikey>  (187) 
YZQDQKOZXJOZAU-UHFFFAOYSA-N

>  <gnina_score_min>  (187) 
6.406

>  <gnina_score>  (187) 
6.251

>  <ref_mols>  (187) 
Z3556a

>  <HIPPO Compound ID>  (187) 
178421

>  <distance_score>  (187) 
0.695654

>  <rmsd(smina/fragmenstein)>  (187) 
0.816

>  <ref_pdb>  (187) 
Z3556a

>  <inspiration_score>  (187) 
None

$$$$
P115503
     RDKit          3D

 30 33  0  0  0  0  0  0  0  0999 V2000
   -2.9271    4.5708  -21.9976 C   0  0  0  0  0  0  0  0  0  0  0  0
   -2.1872    5.4391  -20.9949 C   0  0  0  0  0  0  0  0  0  0  0  0
   -2.5008    5.0978  -19.5359 C   0  0  0  0  0  0  0  0  0  0  0  0
   -3.9590    5.3830  -19.1629 C   0  0  0  0  0  0  0  0  0  0  0  0
   -4.2635    5.2808  -17.7485 N   0  0  0  0  0  0  0  0  0  0  0  0
   -3.3406    5.5980  -16.8150 N   0  0  0  0  0  0  0  0  0  0  0  0
   -4.0225    5.5816  -15.6616 C   0  0  0  0  0  0  0  0  0  0  0  0
   -3.3194    5.8998  -14.3929 C   0  0  0  0  0  0  0  0  0  0  0  0
   -5.3882    5.2536  -15.8620 C   0  0  0  0  0  0  0  0  0  0  0  0
   -6.5555    5.1330  -15.1049 C   0  0  0  0  0  0  0  0  0  0  0  0
   -6.5563    5.5536  -13.6879 C   0  0  0  0  0  0  0  0  0  0  0  0
   -6.1846    6.6346  -13.4448 O   0  0  0  0  0  0  0  0  0  0  0  0
   -7.1641    4.4697  -12.7638 N   0  0  0  0  0  0  0  0  0  0  0  0
   -7.5155    4.5226  -11.4189 C   0  0  0  0  0  0  0  0  0  0  0  0
   -7.4283    5.7338  -10.7119 C   0  0  0  0  0  0  0  0  0  0  0  0
   -7.7904    5.8096   -9.3682 C   0  0  0  0  0  0  0  0  0  0  0  0
   -8.2226    4.6547   -8.7523 C   0  0  0  0  0  0  0  0  0  0  0  0
   -8.3413    3.4519   -9.4563 C   0  0  0  0  0  0  0  0  0  0  0  0
   -8.0043    3.3688  -10.7967 C   0  0  0  0  0  0  0  0  0  0  0  0
   -8.8549    2.3930   -8.5305 C   0  0  0  0  0  0  0  0  0  0  0  0
   -8.7029    3.0071   -7.2097 N   0  0  0  0  0  0  0  0  0  0  0  0
   -9.4196    2.4236   -6.1098 C   0  0  0  0  0  0  0  0  0  0  0  0
  -10.8667    2.8379   -5.9546 C   0  0  0  0  0  0  0  0  0  0  0  0
   -8.6166    4.4505   -7.3265 C   0  0  0  0  0  0  0  0  0  0  0  0
   -7.7380    4.7808  -15.7701 C   0  0  0  0  0  0  0  0  0  0  0  0
   -9.2032    4.7837  -14.8872 Cl  0  0  0  0  0  0  0  0  0  0  0  0
   -7.7146    4.5227  -17.1474 C   0  0  0  0  0  0  0  0  0  0  0  0
   -8.9361    4.0487  -17.8965 C   0  0  0  0  0  0  0  0  0  0  0  0
   -6.6013    4.6627  -17.9062 N   0  0  0  0  0  0  0  0  0  0  0  0
   -5.5013    5.0273  -17.2236 C   0  0  0  0  0  0  0  0  0  0  0  0
  1  2  1  0
  2  3  1  0
  3  4  1  0
  4  5  1  0
  5  6  1  0
  6  7  2  0
  7  8  1  0
  7  9  1  0
  9 10  2  0
 10 11  1  0
 11 12  2  0
 11 13  1  0
 13 14  1  0
 14 15  2  0
 15 16  1  0
 16 17  2  0
 17 18  1  0
 18 19  2  0
 18 20  1  0
 20 21  1  0
 21 22  1  0
 22 23  1  0
 21 24  1  0
 10 25  1  0
 25 26  1  0
 25 27  2  0
 27 28  1  0
 27 29  1  0
 29 30  2  0
 30  5  1  0
 30  9  1  0
 19 14  1  0
 24 17  1  0
M  END
>  <name>  (188) 
P115503

>  <alias>  (188) 
None

>  <smina_score_min>  (188) 
-7.088

>  <exports>  (188) 
['/opt/xchem-fragalysis-2/maxwin/BulkDock/OUTPUTS/openbind_xx01zvns2b_c2_elabs_1LOUTNY.sdf', '/opt/xchem-fragalysis-2/maxwin/BulkDock/OUTPUTS/openbind_xx01zvns2b_c2_elabs_1LSYIIV.sdf']

>  <tags>  (188) 
syndirella_placed,openbind_xx01zvns2b_c2_elabs,openbind_xx01zvns2b_c2_elabs_scored_6.2plus,syndirella_product,openbind_xx01zvns2b_c2_elabs_scored,openbind_xx01zvns2b_c2_elabs_scored_top80percent,BulkDock Fragalysis export

>  <subsites>  (188) 
1 - Z4590/B/203/1

>  <smiles>  (188) 
CCCCn1nc(C)c2c(C(=O)Nc3ccc4c(c3)CN(CC)C4)c(Cl)c(C)nc21

>  <HIPPO Pose ID>  (188) 
115503

>  <energy_score>  (188) 
-49.726489

>  <inchikey>  (188) 
UBAHSINURQDNPL-UHFFFAOYSA-N

>  <gnina_score_min>  (188) 
6.429

>  <gnina_score>  (188) 
6.317

>  <ref_mols>  (188) 
Z3556a

>  <HIPPO Compound ID>  (188) 
178433

>  <distance_score>  (188) 
0.758916

>  <rmsd(smina/fragmenstein)>  (188) 
0.587

>  <ref_pdb>  (188) 
Z3556a

>  <inspiration_score>  (188) 
None

$$$$
P115513
     RDKit          3D

 30 33  0  0  0  0  0  0  0  0999 V2000
   -8.2580    4.7063   -4.1030 C   0  0  0  0  0  0  0  0  0  0  0  0
   -9.3930    3.7378   -3.8272 C   0  0  0  0  0  0  0  0  0  0  0  0
  -10.1729    3.2646   -5.0605 C   0  0  0  0  0  0  0  0  0  0  0  0
   -9.3646    2.4818   -6.1160 C   0  0  0  0  0  0  0  0  0  0  0  0
   -9.4331    3.1428   -7.4091 N   0  0  0  0  0  0  0  0  0  0  0  0
   -8.6903    4.4092   -7.4277 C   0  0  0  0  0  0  0  0  0  0  0  0
   -8.3649    4.6065   -8.8619 C   0  0  0  0  0  0  0  0  0  0  0  0
   -7.9747    5.7670   -9.4882 C   0  0  0  0  0  0  0  0  0  0  0  0
   -7.6859    5.6916  -10.8421 C   0  0  0  0  0  0  0  0  0  0  0  0
   -7.7843    4.4745  -11.5421 C   0  0  0  0  0  0  0  0  0  0  0  0
   -7.4471    4.4533  -12.8921 N   0  0  0  0  0  0  0  0  0  0  0  0
   -7.0083    5.5954  -13.8342 C   0  0  0  0  0  0  0  0  0  0  0  0
   -6.7863    6.7194  -13.6090 O   0  0  0  0  0  0  0  0  0  0  0  0
   -6.8900    5.1558  -15.2225 C   0  0  0  0  0  0  0  0  0  0  0  0
   -8.0325    4.8225  -15.9424 C   0  0  0  0  0  0  0  0  0  0  0  0
   -7.9240    4.6654  -17.3221 C   0  0  0  0  0  0  0  0  0  0  0  0
   -9.1664    4.3725  -18.1189 C   0  0  0  0  0  0  0  0  0  0  0  0
   -9.3983    2.8955  -18.1560 C   0  0  0  0  0  0  0  0  0  0  0  0
   -6.7697    4.7711  -18.0164 N   0  0  0  0  0  0  0  0  0  0  0  0
   -5.6976    5.0634  -17.2589 C   0  0  0  0  0  0  0  0  0  0  0  0
   -5.6682    5.2660  -15.8909 C   0  0  0  0  0  0  0  0  0  0  0  0
   -4.3127    5.5649  -15.5954 C   0  0  0  0  0  0  0  0  0  0  0  0
   -3.7056    5.8707  -14.2762 C   0  0  0  0  0  0  0  0  0  0  0  0
   -3.5452    5.5453  -16.6962 N   0  0  0  0  0  0  0  0  0  0  0  0
   -4.4165    5.2557  -17.6893 N   0  0  0  0  0  0  0  0  0  0  0  0
   -3.9601    5.2080  -19.0611 C   0  0  0  0  0  0  0  0  0  0  0  0
   -3.8363    6.5922  -19.6732 C   0  0  0  0  0  0  0  0  0  0  0  0
   -8.1926    3.3035  -10.8906 C   0  0  0  0  0  0  0  0  0  0  0  0
   -8.4819    3.3897   -9.5383 C   0  0  0  0  0  0  0  0  0  0  0  0
   -8.9157    2.3430   -8.5497 C   0  0  0  0  0  0  0  0  0  0  0  0
  1  2  1  0
  2  3  1  0
  3  4  1  0
  4  5  1  0
  5  6  1  0
  6  7  1  0
  7  8  2  0
  8  9  1  0
  9 10  2  0
 10 11  1  0
 11 12  1  0
 12 13  2  0
 12 14  1  0
 14 15  2  0
 15 16  1  0
 16 17  1  0
 17 18  1  0
 16 19  2  0
 19 20  1  0
 20 21  2  0
 21 22  1  0
 22 23  1  0
 22 24  2  0
 24 25  1  0
 25 26  1  0
 26 27  1  0
 10 28  1  0
 28 29  2  0
 29 30  1  0
 30  5  1  0
 29  7  1  0
 21 14  1  0
 25 20  1  0
M  END
>  <name>  (189) 
P115513

>  <alias>  (189) 
None

>  <smina_score_min>  (189) 
-7.564

>  <exports>  (189) 
['/opt/xchem-fragalysis-2/maxwin/BulkDock/OUTPUTS/openbind_xx01zvns2b_c2_elabs_1LOUTNY.sdf', '/opt/xchem-fragalysis-2/maxwin/BulkDock/OUTPUTS/openbind_xx01zvns2b_c2_elabs_1LSYIIV.sdf']

>  <tags>  (189) 
syndirella_placed,openbind_xx01zvns2b_c2_elabs,openbind_xx01zvns2b_c2_elabs_scored_6.2plus,syndirella_product,openbind_xx01zvns2b_c2_elabs_scored,openbind_xx01zvns2b_c2_elabs_scored_top80percent,BulkDock Fragalysis export

>  <subsites>  (189) 
1 - Z4590/B/203/1

>  <smiles>  (189) 
CCCCN1Cc2ccc(NC(=O)c3cc(CC)nc4c3c(C)nn4CC)cc2C1

>  <HIPPO Pose ID>  (189) 
115513

>  <energy_score>  (189) 
-25.180418

>  <inchikey>  (189) 
KSBVKPLRJZFYHV-UHFFFAOYSA-N

>  <gnina_score_min>  (189) 
6.254

>  <gnina_score>  (189) 
6.147

>  <ref_mols>  (189) 
Z3556a

>  <HIPPO Compound ID>  (189) 
178446

>  <distance_score>  (189) 
0.632508

>  <rmsd(smina/fragmenstein)>  (189) 
0.67

>  <ref_pdb>  (189) 
Z3556a

>  <inspiration_score>  (189) 
None

$$$$
P115514
     RDKit          3D

 30 33  0  0  0  0  0  0  0  0999 V2000
   -9.3978    2.9072  -18.1531 C   0  0  0  0  0  0  0  0  0  0  0  0
   -9.1797    4.3842  -18.0715 C   0  0  0  0  0  0  0  0  0  0  0  0
   -7.9228    4.6647  -17.2938 C   0  0  0  0  0  0  0  0  0  0  0  0
   -7.9980    4.8002  -15.9085 C   0  0  0  0  0  0  0  0  0  0  0  0
   -6.8367    5.1170  -15.2073 C   0  0  0  0  0  0  0  0  0  0  0  0
   -6.9189    5.5414  -13.8084 C   0  0  0  0  0  0  0  0  0  0  0  0
   -6.5871    6.6344  -13.5655 O   0  0  0  0  0  0  0  0  0  0  0  0
   -7.4696    4.4328  -12.8836 N   0  0  0  0  0  0  0  0  0  0  0  0
   -7.8046    4.4660  -11.5329 C   0  0  0  0  0  0  0  0  0  0  0  0
   -7.7303    5.6953  -10.8520 C   0  0  0  0  0  0  0  0  0  0  0  0
   -8.0274    5.7874   -9.5002 C   0  0  0  0  0  0  0  0  0  0  0  0
   -8.4018    4.6318   -8.8542 C   0  0  0  0  0  0  0  0  0  0  0  0
   -8.4914    3.4031   -9.5102 C   0  0  0  0  0  0  0  0  0  0  0  0
   -8.1959    3.3000  -10.8618 C   0  0  0  0  0  0  0  0  0  0  0  0
   -8.9068    2.3633   -8.5087 C   0  0  0  0  0  0  0  0  0  0  0  0
   -9.4379    3.1591   -7.3697 N   0  0  0  0  0  0  0  0  0  0  0  0
   -9.2592    2.5379   -6.0565 C   0  0  0  0  0  0  0  0  0  0  0  0
  -10.0340    3.2292   -4.9157 C   0  0  0  0  0  0  0  0  0  0  0  0
   -9.4551    2.9966   -3.7106 F   0  0  0  0  0  0  0  0  0  0  0  0
  -10.0305    4.5833   -5.0413 F   0  0  0  0  0  0  0  0  0  0  0  0
   -8.7552    4.4666   -7.4217 C   0  0  0  0  0  0  0  0  0  0  0  0
   -5.6306    5.2314  -15.9061 C   0  0  0  0  0  0  0  0  0  0  0  0
   -4.2628    5.5128  -15.6429 C   0  0  0  0  0  0  0  0  0  0  0  0
   -3.6149    5.7855  -14.3354 C   0  0  0  0  0  0  0  0  0  0  0  0
   -3.5244    5.5053  -16.7651 N   0  0  0  0  0  0  0  0  0  0  0  0
   -4.4275    5.2488  -17.7373 N   0  0  0  0  0  0  0  0  0  0  0  0
   -4.0148    5.2333  -19.1229 C   0  0  0  0  0  0  0  0  0  0  0  0
   -3.9566    6.6285  -19.7195 C   0  0  0  0  0  0  0  0  0  0  0  0
   -5.6963    5.0546  -17.2763 C   0  0  0  0  0  0  0  0  0  0  0  0
   -6.7860    4.7818  -18.0148 N   0  0  0  0  0  0  0  0  0  0  0  0
  1  2  1  0
  2  3  1  0
  3  4  2  0
  4  5  1  0
  5  6  1  0
  6  7  2  0
  6  8  1  0
  8  9  1  0
  9 10  2  0
 10 11  1  0
 11 12  2  0
 12 13  1  0
 13 14  2  0
 13 15  1  0
 15 16  1  0
 16 17  1  0
 17 18  1  0
 18 19  1  0
 18 20  1  0
 16 21  1  0
  5 22  2  0
 22 23  1  0
 23 24  1  0
 23 25  2  0
 25 26  1  0
 26 27  1  0
 27 28  1  0
 26 29  1  0
 29 30  2  0
 30  3  1  0
 14  9  1  0
 29 22  1  0
 21 12  1  0
M  END
>  <name>  (190) 
P115514

>  <alias>  (190) 
None

>  <smina_score_min>  (190) 
-7.888

>  <exports>  (190) 
['/opt/xchem-fragalysis-2/maxwin/BulkDock/OUTPUTS/openbind_xx01zvns2b_c2_elabs_1LOUTNY.sdf', '/opt/xchem-fragalysis-2/maxwin/BulkDock/OUTPUTS/openbind_xx01zvns2b_c2_elabs_1LSYIIV.sdf']

>  <tags>  (190) 
syndirella_placed,openbind_xx01zvns2b_c2_elabs,openbind_xx01zvns2b_c2_elabs_scored_6.2plus,syndirella_product,openbind_xx01zvns2b_c2_elabs_scored,openbind_xx01zvns2b_c2_elabs_scored_top80percent,BulkDock Fragalysis export

>  <subsites>  (190) 
1 - Z4590/B/203/1

>  <smiles>  (190) 
CCc1cc(C(=O)Nc2ccc3c(c2)CN(CC(F)F)C3)c2c(C)nn(CC)c2n1

>  <HIPPO Pose ID>  (190) 
115514

>  <energy_score>  (190) 
-22.557986

>  <inchikey>  (190) 
HHBKCSJUTGVHCL-UHFFFAOYSA-N

>  <gnina_score_min>  (190) 
6.248

>  <gnina_score>  (190) 
6.114

>  <ref_mols>  (190) 
Z3556a

>  <HIPPO Compound ID>  (190) 
178447

>  <distance_score>  (190) 
0.63116

>  <rmsd(smina/fragmenstein)>  (190) 
0.736

>  <ref_pdb>  (190) 
Z3556a

>  <inspiration_score>  (190) 
None

$$$$
P115526
     RDKit          3D

 30 33  0  0  0  0  0  0  0  0999 V2000
   -5.1437    7.3136  -19.9001 C   0  0  0  0  0  0  0  0  0  0  0  0
   -3.8381    6.5965  -19.5853 C   0  0  0  0  0  0  0  0  0  0  0  0
   -4.0504    5.2291  -18.9356 C   0  0  0  0  0  0  0  0  0  0  0  0
   -4.6081    5.3052  -17.6023 N   0  0  0  0  0  0  0  0  0  0  0  0
   -3.8361    5.7212  -16.5719 N   0  0  0  0  0  0  0  0  0  0  0  0
   -4.6726    5.7039  -15.5221 C   0  0  0  0  0  0  0  0  0  0  0  0
   -4.1850    6.1147  -14.1818 C   0  0  0  0  0  0  0  0  0  0  0  0
   -5.9721    5.2594  -15.8856 C   0  0  0  0  0  0  0  0  0  0  0  0
   -7.2182    5.0437  -15.2858 C   0  0  0  0  0  0  0  0  0  0  0  0
   -7.4568    5.5055  -13.9124 C   0  0  0  0  0  0  0  0  0  0  0  0
   -7.3360    6.6466  -13.6980 O   0  0  0  0  0  0  0  0  0  0  0  0
   -7.8363    4.3450  -12.9687 N   0  0  0  0  0  0  0  0  0  0  0  0
   -8.0470    4.3304  -11.5907 C   0  0  0  0  0  0  0  0  0  0  0  0
   -8.0324    5.5317  -10.8615 C   0  0  0  0  0  0  0  0  0  0  0  0
   -8.2172    5.5343   -9.4792 C   0  0  0  0  0  0  0  0  0  0  0  0
   -8.4249    4.3227   -8.8497 C   0  0  0  0  0  0  0  0  0  0  0  0
   -8.4510    3.1310   -9.5624 C   0  0  0  0  0  0  0  0  0  0  0  0
   -8.2597    3.1133  -10.9367 C   0  0  0  0  0  0  0  0  0  0  0  0
   -8.6969    1.9945   -8.6220 C   0  0  0  0  0  0  0  0  0  0  0  0
   -8.8896    2.6077   -7.2783 N   0  0  0  0  0  0  0  0  0  0  0  0
  -10.1862    2.2362   -6.7029 C   0  0  0  0  0  0  0  0  0  0  0  0
  -10.4981    2.7763   -5.3078 C   0  0  0  0  0  0  0  0  0  0  0  0
  -10.7115    4.1212   -5.3515 F   0  0  0  0  0  0  0  0  0  0  0  0
  -11.6727    2.2402   -4.8748 F   0  0  0  0  0  0  0  0  0  0  0  0
   -8.6643    4.0581   -7.4038 C   0  0  0  0  0  0  0  0  0  0  0  0
   -8.2644    4.5409  -16.0602 C   0  0  0  0  0  0  0  0  0  0  0  0
   -8.0528    4.3419  -17.4224 C   0  0  0  0  0  0  0  0  0  0  0  0
   -9.1894    3.8693  -18.2840 C   0  0  0  0  0  0  0  0  0  0  0  0
   -6.8771    4.5727  -18.0510 N   0  0  0  0  0  0  0  0  0  0  0  0
   -5.8912    5.0038  -17.2429 C   0  0  0  0  0  0  0  0  0  0  0  0
  1  2  1  0
  2  3  1  0
  3  4  1  0
  4  5  1  0
  5  6  2  0
  6  7  1  0
  6  8  1  0
  8  9  2  0
  9 10  1  0
 10 11  2  0
 10 12  1  0
 12 13  1  0
 13 14  2  0
 14 15  1  0
 15 16  2  0
 16 17  1  0
 17 18  2  0
 17 19  1  0
 19 20  1  0
 20 21  1  0
 21 22  1  0
 22 23  1  0
 22 24  1  0
 20 25  1  0
  9 26  1  0
 26 27  2  0
 27 28  1  0
 27 29  1  0
 29 30  2  0
 30  4  1  0
 30  8  1  0
 18 13  1  0
 25 16  1  0
M  END
>  <name>  (191) 
P115526

>  <alias>  (191) 
None

>  <smina_score_min>  (191) 
-8.339

>  <exports>  (191) 
['/opt/xchem-fragalysis-2/maxwin/BulkDock/OUTPUTS/openbind_xx01zvns2b_c2_elabs_1LOUTNY.sdf', '/opt/xchem-fragalysis-2/maxwin/BulkDock/OUTPUTS/openbind_xx01zvns2b_c2_elabs_1LSYIIV.sdf']

>  <tags>  (191) 
syndirella_placed,openbind_xx01zvns2b_c2_elabs,openbind_xx01zvns2b_c2_elabs_scored_6.2plus,syndirella_product,openbind_xx01zvns2b_c2_elabs_scored,openbind_xx01zvns2b_c2_elabs_scored_top80percent,BulkDock Fragalysis export

>  <subsites>  (191) 
1 - Z4590/B/203/1

>  <smiles>  (191) 
CCCn1nc(C)c2c(C(=O)Nc3ccc4c(c3)CN(CC(F)F)C4)cc(C)nc21

>  <HIPPO Pose ID>  (191) 
115526

>  <energy_score>  (191) 
-28.978411

>  <inchikey>  (191) 
ZSOHNIQRIZCUJW-UHFFFAOYSA-N

>  <gnina_score_min>  (191) 
6.294

>  <gnina_score>  (191) 
6.216

>  <ref_mols>  (191) 
Z3556a

>  <HIPPO Compound ID>  (191) 
178464

>  <distance_score>  (191) 
0.433981

>  <rmsd(smina/fragmenstein)>  (191) 
0.286

>  <ref_pdb>  (191) 
Z3556a

>  <inspiration_score>  (191) 
None

$$$$
P115527
     RDKit          3D

 30 33  0  0  0  0  0  0  0  0999 V2000
   -8.9382    4.2884   -2.9757 C   0  0  0  0  0  0  0  0  0  0  0  0
   -8.6484    3.9085   -4.4194 C   0  0  0  0  0  0  0  0  0  0  0  0
   -9.8175    3.1634   -5.0799 C   0  0  0  0  0  0  0  0  0  0  0  0
   -9.4171    2.3242   -6.3081 C   0  0  0  0  0  0  0  0  0  0  0  0
   -9.4098    3.0627   -7.5541 N   0  0  0  0  0  0  0  0  0  0  0  0
   -8.6243    4.2966   -7.5531 C   0  0  0  0  0  0  0  0  0  0  0  0
   -8.3552    4.5278   -8.9972 C   0  0  0  0  0  0  0  0  0  0  0  0
   -8.0125    5.6989   -9.6322 C   0  0  0  0  0  0  0  0  0  0  0  0
   -7.8129    5.6434  -11.0062 C   0  0  0  0  0  0  0  0  0  0  0  0
   -7.9325    4.4306  -11.7118 C   0  0  0  0  0  0  0  0  0  0  0  0
   -7.6720    4.4085  -13.0768 N   0  0  0  0  0  0  0  0  0  0  0  0
   -7.2935    5.5489  -14.0427 C   0  0  0  0  0  0  0  0  0  0  0  0
   -7.0652    6.6740  -13.8326 O   0  0  0  0  0  0  0  0  0  0  0  0
   -7.1331    5.0699  -15.4172 C   0  0  0  0  0  0  0  0  0  0  0  0
   -8.2202    4.5774  -16.1385 C   0  0  0  0  0  0  0  0  0  0  0  0
   -8.0641    4.3564  -17.5042 C   0  0  0  0  0  0  0  0  0  0  0  0
   -9.2405    3.8897  -18.3132 C   0  0  0  0  0  0  0  0  0  0  0  0
   -6.9090    4.5581  -18.1811 N   0  0  0  0  0  0  0  0  0  0  0  0
   -5.8861    4.9852  -17.4188 C   0  0  0  0  0  0  0  0  0  0  0  0
   -5.9065    5.2538  -16.0638 C   0  0  0  0  0  0  0  0  0  0  0  0
   -4.5839    5.6729  -15.7540 C   0  0  0  0  0  0  0  0  0  0  0  0
   -4.0284    6.0747  -14.4377 C   0  0  0  0  0  0  0  0  0  0  0  0
   -3.7934    5.6767  -16.8389 N   0  0  0  0  0  0  0  0  0  0  0  0
   -4.6165    5.2702  -17.8321 N   0  0  0  0  0  0  0  0  0  0  0  0
   -4.1311    5.2042  -19.1932 C   0  0  0  0  0  0  0  0  0  0  0  0
   -4.1431    6.5689  -19.8764 C   0  0  0  0  0  0  0  0  0  0  0  0
   -3.6909    6.4641  -21.3238 C   0  0  0  0  0  0  0  0  0  0  0  0
   -8.2809    3.2496  -11.0508 C   0  0  0  0  0  0  0  0  0  0  0  0
   -8.5057    3.3225   -9.6884 C   0  0  0  0  0  0  0  0  0  0  0  0
   -8.9211    2.2666   -8.7079 C   0  0  0  0  0  0  0  0  0  0  0  0
  1  2  1  0
  2  3  1  0
  3  4  1  0
  4  5  1  0
  5  6  1  0
  6  7  1  0
  7  8  2  0
  8  9  1  0
  9 10  2  0
 10 11  1  0
 11 12  1  0
 12 13  2  0
 12 14  1  0
 14 15  2  0
 15 16  1  0
 16 17  1  0
 16 18  2  0
 18 19  1  0
 19 20  2  0
 20 21  1  0
 21 22  1  0
 21 23  2  0
 23 24  1  0
 24 25  1  0
 25 26  1  0
 26 27  1  0
 10 28  1  0
 28 29  2  0
 29 30  1  0
 30  5  1  0
 29  7  1  0
 20 14  1  0
 24 19  1  0
M  END
>  <name>  (192) 
P115527

>  <alias>  (192) 
None

>  <smina_score_min>  (192) 
-8.002

>  <exports>  (192) 
['/opt/xchem-fragalysis-2/maxwin/BulkDock/OUTPUTS/openbind_xx01zvns2b_c2_elabs_1LOUTNY.sdf', '/opt/xchem-fragalysis-2/maxwin/BulkDock/OUTPUTS/openbind_xx01zvns2b_c2_elabs_1LSYIIV.sdf']

>  <tags>  (192) 
syndirella_placed,openbind_xx01zvns2b_c2_elabs,openbind_xx01zvns2b_c2_elabs_scored_6.2plus,syndirella_product,openbind_xx01zvns2b_c2_elabs_scored,openbind_xx01zvns2b_c2_elabs_scored_top80percent,BulkDock Fragalysis export

>  <subsites>  (192) 
1 - Z4590/B/203/1

>  <smiles>  (192) 
CCCCN1Cc2ccc(NC(=O)c3cc(C)nc4c3c(C)nn4CCC)cc2C1

>  <HIPPO Pose ID>  (192) 
115527

>  <energy_score>  (192) 
-52.656816

>  <inchikey>  (192) 
IZOREZDJHHUBMA-UHFFFAOYSA-N

>  <gnina_score_min>  (192) 
6.248

>  <gnina_score>  (192) 
6.146

>  <ref_mols>  (192) 
Z3556a

>  <HIPPO Compound ID>  (192) 
178465

>  <distance_score>  (192) 
0.596098

>  <rmsd(smina/fragmenstein)>  (192) 
0.527

>  <ref_pdb>  (192) 
Z3556a

>  <inspiration_score>  (192) 
None

$$$$
P115549
     RDKit          3D

 30 34  0  0  0  0  0  0  0  0999 V2000
  -10.1798    4.1936  -18.0384 C   0  0  0  0  0  0  0  0  0  0  0  0
   -8.7587    3.8396  -18.3737 C   0  0  0  0  0  0  0  0  0  0  0  0
   -7.7241    4.4247  -17.4403 C   0  0  0  0  0  0  0  0  0  0  0  0
   -7.9473    4.5346  -16.0626 C   0  0  0  0  0  0  0  0  0  0  0  0
   -6.9327    5.0422  -15.2499 C   0  0  0  0  0  0  0  0  0  0  0  0
   -7.2133    5.4845  -13.8756 C   0  0  0  0  0  0  0  0  0  0  0  0
   -7.1212    6.6281  -13.6582 O   0  0  0  0  0  0  0  0  0  0  0  0
   -7.6174    4.3192  -12.9482 N   0  0  0  0  0  0  0  0  0  0  0  0
   -7.8924    4.3030  -11.5802 C   0  0  0  0  0  0  0  0  0  0  0  0
   -7.9186    5.5115  -10.8529 C   0  0  0  0  0  0  0  0  0  0  0  0
   -8.2089    5.5277   -9.4881 C   0  0  0  0  0  0  0  0  0  0  0  0
   -8.4726    4.3164   -8.8870 C   0  0  0  0  0  0  0  0  0  0  0  0
   -8.4531    3.1100   -9.5855 C   0  0  0  0  0  0  0  0  0  0  0  0
   -8.1555    3.0855  -10.9407 C   0  0  0  0  0  0  0  0  0  0  0  0
   -8.8317    1.9959   -8.6670 C   0  0  0  0  0  0  0  0  0  0  0  0
   -9.1213    2.6978   -7.4275 N   0  0  0  0  0  0  0  0  0  0  0  0
   -9.8546    2.0684   -6.3640 C   0  0  0  0  0  0  0  0  0  0  0  0
   -8.9118    4.0566   -7.5119 C   0  0  0  0  0  0  0  0  0  0  0  0
   -9.1058    4.9193   -6.6749 O   0  0  0  0  0  0  0  0  0  0  0  0
   -5.6962    5.3350  -15.8276 C   0  0  0  0  0  0  0  0  0  0  0  0
   -4.4168    5.7786  -15.4357 C   0  0  0  0  0  0  0  0  0  0  0  0
   -3.9789    6.0237  -13.9658 C   0  0  0  0  0  0  0  0  0  0  0  0
   -2.6308    5.5332  -13.5028 C   0  0  0  0  0  0  0  0  0  0  0  0
   -3.8770    4.8480  -13.0260 C   0  0  0  0  0  0  0  0  0  0  0  0
   -3.5918    5.9750  -16.4685 N   0  0  0  0  0  0  0  0  0  0  0  0
   -4.3655    5.6803  -17.5400 N   0  0  0  0  0  0  0  0  0  0  0  0
   -3.9371    6.0964  -18.8575 C   0  0  0  0  0  0  0  0  0  0  0  0
   -3.6107    4.9668  -19.8020 C   0  0  0  0  0  0  0  0  0  0  0  0
   -5.6088    5.2150  -17.2033 C   0  0  0  0  0  0  0  0  0  0  0  0
   -6.5700    4.7960  -18.0433 N   0  0  0  0  0  0  0  0  0  0  0  0
  1  2  1  0
  2  3  1  0
  3  4  2  0
  4  5  1  0
  5  6  1  0
  6  7  2  0
  6  8  1  0
  8  9  1  0
  9 10  2  0
 10 11  1  0
 11 12  2  0
 12 13  1  0
 13 14  2  0
 13 15  1  0
 15 16  1  0
 16 17  1  0
 16 18  1  0
 18 19  2  0
  5 20  2  0
 20 21  1  0
 21 22  1  0
 22 23  1  0
 23 24  1  0
 21 25  2  0
 25 26  1  0
 26 27  1  0
 27 28  1  0
 26 29  1  0
 29 30  2  0
 30  3  1  0
 14  9  1  0
 29 20  1  0
 18 12  1  0
 24 22  1  0
M  END
>  <name>  (193) 
P115549

>  <alias>  (193) 
None

>  <smina_score_min>  (193) 
-8.045

>  <exports>  (193) 
['/opt/xchem-fragalysis-2/maxwin/BulkDock/OUTPUTS/openbind_xx01zvns2b_c2_elabs_1LOUTNY.sdf', '/opt/xchem-fragalysis-2/maxwin/BulkDock/OUTPUTS/openbind_xx01zvns2b_c2_elabs_1LSYIIV.sdf']

>  <tags>  (193) 
syndirella_placed,openbind_xx01zvns2b_c2_elabs,openbind_xx01zvns2b_c2_elabs_scored_6.2plus,syndirella_product,openbind_xx01zvns2b_c2_elabs_scored,openbind_xx01zvns2b_c2_elabs_scored_top80percent,BulkDock Fragalysis export

>  <subsites>  (193) 
1 - Z4590/B/203/1

>  <smiles>  (193) 
CCc1cc(C(=O)Nc2ccc3c(c2)CN(C)C3=O)c2c(C3CC3)nn(CC)c2n1

>  <HIPPO Pose ID>  (193) 
115549

>  <energy_score>  (193) 
-38.312617

>  <inchikey>  (193) 
VZXFERROXONUPZ-UHFFFAOYSA-N

>  <gnina_score_min>  (193) 
6.252

>  <gnina_score>  (193) 
6.376

>  <ref_mols>  (193) 
Z3556a

>  <HIPPO Compound ID>  (193) 
178495

>  <distance_score>  (193) 
0.598135

>  <rmsd(smina/fragmenstein)>  (193) 
0.664

>  <ref_pdb>  (193) 
Z3556a

>  <inspiration_score>  (193) 
None

$$$$
P115556
     RDKit          3D

 30 34  0  0  0  0  0  0  0  0999 V2000
  -10.6161    2.4659   -5.6142 C   0  0  0  0  0  0  0  0  0  0  0  0
   -9.6449    1.8777   -6.6260 C   0  0  0  0  0  0  0  0  0  0  0  0
   -9.5398    2.7368   -7.7869 N   0  0  0  0  0  0  0  0  0  0  0  0
   -8.8004    3.9924   -7.5772 C   0  0  0  0  0  0  0  0  0  0  0  0
   -8.3842    4.3642   -8.9672 C   0  0  0  0  0  0  0  0  0  0  0  0
   -8.0211    5.5861   -9.4923 C   0  0  0  0  0  0  0  0  0  0  0  0
   -7.7135    5.6466  -10.8560 C   0  0  0  0  0  0  0  0  0  0  0  0
   -7.7572    4.4960  -11.6653 C   0  0  0  0  0  0  0  0  0  0  0  0
   -7.4457    4.5594  -13.0225 N   0  0  0  0  0  0  0  0  0  0  0  0
   -7.0155    5.7562  -13.8977 C   0  0  0  0  0  0  0  0  0  0  0  0
   -6.9285    6.8907  -13.6382 O   0  0  0  0  0  0  0  0  0  0  0  0
   -6.7210    5.3393  -15.2733 C   0  0  0  0  0  0  0  0  0  0  0  0
   -7.7428    4.9113  -16.1247 C   0  0  0  0  0  0  0  0  0  0  0  0
   -7.4593    4.6469  -17.4713 C   0  0  0  0  0  0  0  0  0  0  0  0
   -8.4728    4.1145  -18.4421 C   0  0  0  0  0  0  0  0  0  0  0  0
   -9.9463    4.3524  -18.3360 C   0  0  0  0  0  0  0  0  0  0  0  0
   -9.3760    3.0134  -17.9869 C   0  0  0  0  0  0  0  0  0  0  0  0
   -6.2286    4.8106  -17.9939 N   0  0  0  0  0  0  0  0  0  0  0  0
   -5.2821    5.1826  -17.1288 C   0  0  0  0  0  0  0  0  0  0  0  0
   -5.4274    5.4547  -15.7848 C   0  0  0  0  0  0  0  0  0  0  0  0
   -4.1177    5.7845  -15.3478 C   0  0  0  0  0  0  0  0  0  0  0  0
   -3.6821    6.1662  -13.9803 C   0  0  0  0  0  0  0  0  0  0  0  0
   -3.2166    5.7031  -16.3447 N   0  0  0  0  0  0  0  0  0  0  0  0
   -3.9644    5.3561  -17.4195 N   0  0  0  0  0  0  0  0  0  0  0  0
   -3.3583    5.1396  -18.7195 C   0  0  0  0  0  0  0  0  0  0  0  0
   -2.2416    6.1280  -19.0307 C   0  0  0  0  0  0  0  0  0  0  0  0
   -1.0621    5.8171  -18.2873 O   0  0  0  0  0  0  0  0  0  0  0  0
   -8.1156    3.2630  -11.1160 C   0  0  0  0  0  0  0  0  0  0  0  0
   -8.4329    3.2216   -9.7696 C   0  0  0  0  0  0  0  0  0  0  0  0
   -8.8884    2.0706   -8.9308 C   0  0  0  0  0  0  0  0  0  0  0  0
  1  2  1  0
  2  3  1  0
  3  4  1  0
  4  5  1  0
  5  6  2  0
  6  7  1  0
  7  8  2  0
  8  9  1  0
  9 10  1  0
 10 11  2  0
 10 12  1  0
 12 13  2  0
 13 14  1  0
 14 15  1  0
 15 16  1  0
 16 17  1  0
 14 18  2  0
 18 19  1  0
 19 20  2  0
 20 21  1  0
 21 22  1  0
 21 23  2  0
 23 24  1  0
 24 25  1  0
 25 26  1  0
 26 27  1  0
  8 28  1  0
 28 29  2  0
 29 30  1  0
 30  3  1  0
 29  5  1  0
 20 12  1  0
 17 15  1  0
 24 19  1  0
M  END
>  <name>  (194) 
P115556

>  <alias>  (194) 
None

>  <smina_score_min>  (194) 
-7.891

>  <exports>  (194) 
['/opt/xchem-fragalysis-2/maxwin/BulkDock/OUTPUTS/openbind_xx01zvns2b_c2_elabs_1LOUTNY.sdf', '/opt/xchem-fragalysis-2/maxwin/BulkDock/OUTPUTS/openbind_xx01zvns2b_c2_elabs_1LSYIIV.sdf']

>  <tags>  (194) 
syndirella_placed,openbind_xx01zvns2b_c2_elabs,openbind_xx01zvns2b_c2_elabs_scored_6.2plus,syndirella_product,openbind_xx01zvns2b_c2_elabs_scored,openbind_xx01zvns2b_c2_elabs_scored_top80percent,BulkDock Fragalysis export

>  <subsites>  (194) 
1 - Z4590/B/203/1

>  <smiles>  (194) 
CCN1Cc2ccc(NC(=O)c3cc(C4CC4)nc4c3c(C)nn4CCO)cc2C1

>  <HIPPO Pose ID>  (194) 
115556

>  <energy_score>  (194) 
-53.433142

>  <inchikey>  (194) 
SGFBPJOWHSPPSV-UHFFFAOYSA-N

>  <gnina_score_min>  (194) 
6.204

>  <gnina_score>  (194) 
6.174

>  <ref_mols>  (194) 
Z3556a

>  <HIPPO Compound ID>  (194) 
178505

>  <distance_score>  (194) 
0.795372

>  <rmsd(smina/fragmenstein)>  (194) 
0.326

>  <ref_pdb>  (194) 
Z3556a

>  <inspiration_score>  (194) 
None

$$$$
P115564
     RDKit          3D

 30 33  0  0  0  0  0  0  0  0999 V2000
  -10.0806    2.9579   -5.1136 C   0  0  0  0  0  0  0  0  0  0  0  0
   -9.9844    2.2181   -6.4328 C   0  0  0  0  0  0  0  0  0  0  0  0
   -9.1102    2.8135   -7.4206 N   0  0  0  0  0  0  0  0  0  0  0  0
   -8.8153    2.0844   -8.6510 C   0  0  0  0  0  0  0  0  0  0  0  0
   -8.4284    3.1706   -9.5963 C   0  0  0  0  0  0  0  0  0  0  0  0
   -8.1400    3.1200  -10.9515 C   0  0  0  0  0  0  0  0  0  0  0  0
   -7.8847    4.3276  -11.6136 C   0  0  0  0  0  0  0  0  0  0  0  0
   -7.6082    4.3247  -12.9780 N   0  0  0  0  0  0  0  0  0  0  0  0
   -7.3273    5.4921  -13.9456 C   0  0  0  0  0  0  0  0  0  0  0  0
   -7.2071    6.6343  -13.7385 O   0  0  0  0  0  0  0  0  0  0  0  0
   -7.1224    5.0329  -15.3232 C   0  0  0  0  0  0  0  0  0  0  0  0
   -8.1871    4.5525  -16.0808 C   0  0  0  0  0  0  0  0  0  0  0  0
   -7.9967    4.3802  -17.4478 C   0  0  0  0  0  0  0  0  0  0  0  0
   -9.1486    3.9161  -18.2952 C   0  0  0  0  0  0  0  0  0  0  0  0
   -6.8360    4.6407  -18.0953 N   0  0  0  0  0  0  0  0  0  0  0  0
   -5.8266    5.0666  -17.3103 C   0  0  0  0  0  0  0  0  0  0  0  0
   -5.8865    5.2613  -15.9395 C   0  0  0  0  0  0  0  0  0  0  0  0
   -4.5893    5.6883  -15.5680 C   0  0  0  0  0  0  0  0  0  0  0  0
   -4.0795    6.0279  -14.2160 C   0  0  0  0  0  0  0  0  0  0  0  0
   -3.7731    5.7700  -16.6238 N   0  0  0  0  0  0  0  0  0  0  0  0
   -4.5585    5.4467  -17.6881 N   0  0  0  0  0  0  0  0  0  0  0  0
   -4.0064    5.6643  -19.0366 C   0  0  0  0  0  0  0  0  0  0  0  0
   -4.9388    5.2308  -20.1847 C   0  0  0  0  0  0  0  0  0  0  0  0
   -3.7481    7.1782  -19.2241 C   0  0  0  0  0  0  0  0  0  0  0  0
   -2.6615    4.9207  -19.1784 C   0  0  0  0  0  0  0  0  0  0  0  0
   -7.9055    5.5505  -10.9117 C   0  0  0  0  0  0  0  0  0  0  0  0
   -8.1849    5.5922   -9.5493 C   0  0  0  0  0  0  0  0  0  0  0  0
   -8.4419    4.3907   -8.9277 C   0  0  0  0  0  0  0  0  0  0  0  0
   -8.8866    4.1717   -7.5541 C   0  0  0  0  0  0  0  0  0  0  0  0
   -9.0664    5.0797   -6.7632 O   0  0  0  0  0  0  0  0  0  0  0  0
  1  2  1  0
  2  3  1  0
  3  4  1  0
  4  5  1  0
  5  6  2  0
  6  7  1  0
  7  8  1  0
  8  9  1  0
  9 10  2  0
  9 11  1  0
 11 12  2  0
 12 13  1  0
 13 14  1  0
 13 15  2  0
 15 16  1  0
 16 17  2  0
 17 18  1  0
 18 19  1  0
 18 20  2  0
 20 21  1  0
 21 22  1  0
 22 23  1  0
 22 24  1  0
 22 25  1  0
  7 26  2  0
 26 27  1  0
 27 28  2  0
 28 29  1  0
 29 30  2  0
 29  3  1  0
 28  5  1  0
 17 11  1  0
 21 16  1  0
M  END
>  <name>  (195) 
P115564

>  <alias>  (195) 
None

>  <smina_score_min>  (195) 
-9.083

>  <exports>  (195) 
['/opt/xchem-fragalysis-2/maxwin/BulkDock/OUTPUTS/openbind_xx01zvns2b_c2_elabs_1LOUTNY.sdf', '/opt/xchem-fragalysis-2/maxwin/BulkDock/OUTPUTS/openbind_xx01zvns2b_c2_elabs_1LSYIIV.sdf']

>  <tags>  (195) 
syndirella_placed,openbind_xx01zvns2b_c2_elabs,openbind_xx01zvns2b_c2_elabs_scored_6.2plus,syndirella_product,openbind_xx01zvns2b_c2_elabs_scored,openbind_xx01zvns2b_c2_elabs_scored_top80percent,BulkDock Fragalysis export

>  <subsites>  (195) 
1 - Z4590/B/203/1

>  <smiles>  (195) 
CCN1Cc2cc(NC(=O)c3cc(C)nc4c3c(C)nn4C(C)(C)C)ccc2C1=O

>  <HIPPO Pose ID>  (195) 
115564

>  <energy_score>  (195) 
-64.229283

>  <inchikey>  (195) 
UNXNEIPHRPZKIX-UHFFFAOYSA-N

>  <gnina_score_min>  (195) 
6.248

>  <gnina_score>  (195) 
6.269

>  <ref_mols>  (195) 
Z3556a

>  <HIPPO Compound ID>  (195) 
178516

>  <distance_score>  (195) 
0.524255

>  <rmsd(smina/fragmenstein)>  (195) 
0.561

>  <ref_pdb>  (195) 
Z3556a

>  <inspiration_score>  (195) 
None

$$$$
P115578
     RDKit          3D

 30 34  0  0  0  0  0  0  0  0999 V2000
   -9.7319    4.6267  -18.7433 C   0  0  0  0  0  0  0  0  0  0  0  0
   -8.9075    3.5342  -18.1349 C   0  0  0  0  0  0  0  0  0  0  0  0
   -7.8986    4.1304  -17.1930 C   0  0  0  0  0  0  0  0  0  0  0  0
   -8.2082    4.3627  -15.8552 C   0  0  0  0  0  0  0  0  0  0  0  0
   -7.2385    4.9490  -15.0385 C   0  0  0  0  0  0  0  0  0  0  0  0
   -7.5890    5.4357  -13.6936 C   0  0  0  0  0  0  0  0  0  0  0  0
   -7.6114    6.5949  -13.5478 O   0  0  0  0  0  0  0  0  0  0  0  0
   -7.8371    4.2906  -12.6790 N   0  0  0  0  0  0  0  0  0  0  0  0
   -8.0643    4.3329  -11.2916 C   0  0  0  0  0  0  0  0  0  0  0  0
   -8.4944    3.1724  -10.6280 C   0  0  0  0  0  0  0  0  0  0  0  0
   -8.6678    3.2382   -9.2481 C   0  0  0  0  0  0  0  0  0  0  0  0
   -8.3847    4.3857   -8.5081 C   0  0  0  0  0  0  0  0  0  0  0  0
   -7.9741    5.5363   -9.1447 C   0  0  0  0  0  0  0  0  0  0  0  0
   -7.8233    5.5024  -10.5331 C   0  0  0  0  0  0  0  0  0  0  0  0
   -7.3492    6.6188  -11.1002 F   0  0  0  0  0  0  0  0  0  0  0  0
   -8.5659    4.1267   -7.0524 C   0  0  0  0  0  0  0  0  0  0  0  0
   -9.1148    2.8024   -7.0324 N   0  0  0  0  0  0  0  0  0  0  0  0
   -9.1421    2.2279   -8.2873 C   0  0  0  0  0  0  0  0  0  0  0  0
   -9.5319    1.1085   -8.5293 O   0  0  0  0  0  0  0  0  0  0  0  0
   -5.9808    5.2496  -15.5908 C   0  0  0  0  0  0  0  0  0  0  0  0
   -4.7332    5.7959  -15.2094 C   0  0  0  0  0  0  0  0  0  0  0  0
   -4.3753    6.2375  -13.7606 C   0  0  0  0  0  0  0  0  0  0  0  0
   -4.6604    7.6582  -13.3460 C   0  0  0  0  0  0  0  0  0  0  0  0
   -3.2423    7.2036  -13.5206 C   0  0  0  0  0  0  0  0  0  0  0  0
   -3.8593    5.8825  -16.2219 N   0  0  0  0  0  0  0  0  0  0  0  0
   -4.5520    5.3858  -17.2722 N   0  0  0  0  0  0  0  0  0  0  0  0
   -4.0039    5.4305  -18.6142 C   0  0  0  0  0  0  0  0  0  0  0  0
   -2.5639    4.9588  -18.7246 C   0  0  0  0  0  0  0  0  0  0  0  0
   -5.8179    4.9864  -16.9400 C   0  0  0  0  0  0  0  0  0  0  0  0
   -6.7261    4.4642  -17.7752 N   0  0  0  0  0  0  0  0  0  0  0  0
  1  2  1  0
  2  3  1  0
  3  4  2  0
  4  5  1  0
  5  6  1  0
  6  7  2  0
  6  8  1  0
  8  9  1  0
  9 10  2  0
 10 11  1  0
 11 12  2  0
 12 13  1  0
 13 14  2  0
 14 15  1  0
 12 16  1  0
 16 17  1  0
 17 18  1  0
 18 19  2  0
  5 20  2  0
 20 21  1  0
 21 22  1  0
 22 23  1  0
 23 24  1  0
 21 25  2  0
 25 26  1  0
 26 27  1  0
 27 28  1  0
 26 29  1  0
 29 30  2  0
 30  3  1  0
 14  9  1  0
 29 20  1  0
 18 11  1  0
 24 22  1  0
M  END
>  <name>  (196) 
P115578

>  <alias>  (196) 
None

>  <smina_score_min>  (196) 
-7.832

>  <exports>  (196) 
['/opt/xchem-fragalysis-2/maxwin/BulkDock/OUTPUTS/openbind_xx01zvns2b_c2_elabs_1LOUTNY.sdf', '/opt/xchem-fragalysis-2/maxwin/BulkDock/OUTPUTS/openbind_xx01zvns2b_c2_elabs_1LSYIIV.sdf']

>  <tags>  (196) 
syndirella_placed,openbind_xx01zvns2b_c2_elabs,openbind_xx01zvns2b_c2_elabs_scored_6.2plus,syndirella_product,openbind_xx01zvns2b_c2_elabs_scored,openbind_xx01zvns2b_c2_elabs_scored_top80percent,BulkDock Fragalysis export

>  <subsites>  (196) 
1 - Z4590/B/203/1

>  <smiles>  (196) 
CCc1cc(C(=O)Nc2cc3c(cc2F)CNC3=O)c2c(C3CC3)nn(CC)c2n1

>  <HIPPO Pose ID>  (196) 
115578

>  <energy_score>  (196) 
-28.116554

>  <inchikey>  (196) 
UGEWEOAQKBDOHT-UHFFFAOYSA-N

>  <gnina_score_min>  (196) 
6.262

>  <gnina_score>  (196) 
6.342

>  <ref_mols>  (196) 
Z3556a

>  <HIPPO Compound ID>  (196) 
178537

>  <distance_score>  (196) 
0.51738

>  <rmsd(smina/fragmenstein)>  (196) 
0.914

>  <ref_pdb>  (196) 
Z3556a

>  <inspiration_score>  (196) 
None

$$$$
P115579
     RDKit          3D

 30 33  0  0  0  0  0  0  0  0999 V2000
   -9.1516    3.8858  -18.2800 C   0  0  0  0  0  0  0  0  0  0  0  0
   -8.0291    4.3679  -17.4042 C   0  0  0  0  0  0  0  0  0  0  0  0
   -8.2583    4.5581  -16.0448 C   0  0  0  0  0  0  0  0  0  0  0  0
   -7.2254    5.0707  -15.2634 C   0  0  0  0  0  0  0  0  0  0  0  0
   -7.4909    5.6070  -13.9199 C   0  0  0  0  0  0  0  0  0  0  0  0
   -7.3758    6.7611  -13.7834 O   0  0  0  0  0  0  0  0  0  0  0  0
   -7.8832    4.5135  -12.9038 N   0  0  0  0  0  0  0  0  0  0  0  0
   -8.1159    4.5940  -11.5308 C   0  0  0  0  0  0  0  0  0  0  0  0
   -7.9873    5.8310  -10.8705 C   0  0  0  0  0  0  0  0  0  0  0  0
   -8.1376    5.9407   -9.4861 C   0  0  0  0  0  0  0  0  0  0  0  0
   -8.4304    4.7976   -8.7727 C   0  0  0  0  0  0  0  0  0  0  0  0
   -8.6029    3.5702   -9.4344 C   0  0  0  0  0  0  0  0  0  0  0  0
   -8.4372    3.4446  -10.8077 C   0  0  0  0  0  0  0  0  0  0  0  0
   -8.9310    2.5181   -8.4214 C   0  0  0  0  0  0  0  0  0  0  0  0
   -9.2881    3.3089   -7.2239 N   0  0  0  0  0  0  0  0  0  0  0  0
   -9.2262    2.5458   -6.0045 C   0  0  0  0  0  0  0  0  0  0  0  0
   -8.5284    4.5781   -7.2773 C   0  0  0  0  0  0  0  0  0  0  0  0
   -9.2680    5.6672   -6.4830 C   0  0  0  0  0  0  0  0  0  0  0  0
   -7.0808    4.5471   -6.7416 C   0  0  0  0  0  0  0  0  0  0  0  0
   -5.9725    5.2950  -15.8520 C   0  0  0  0  0  0  0  0  0  0  0  0
   -4.6887    5.7437  -15.4580 C   0  0  0  0  0  0  0  0  0  0  0  0
   -4.2192    6.1105  -14.0985 C   0  0  0  0  0  0  0  0  0  0  0  0
   -3.8463    5.8204  -16.4950 N   0  0  0  0  0  0  0  0  0  0  0  0
   -4.6018    5.4684  -17.5726 N   0  0  0  0  0  0  0  0  0  0  0  0
   -4.0262    5.6770  -18.9134 C   0  0  0  0  0  0  0  0  0  0  0  0
   -2.6848    4.9248  -19.0317 C   0  0  0  0  0  0  0  0  0  0  0  0
   -3.7550    7.1887  -19.1027 C   0  0  0  0  0  0  0  0  0  0  0  0
   -4.9417    5.2458  -20.0762 C   0  0  0  0  0  0  0  0  0  0  0  0
   -5.8735    5.0800  -17.2177 C   0  0  0  0  0  0  0  0  0  0  0  0
   -6.8571    4.6380  -18.0233 N   0  0  0  0  0  0  0  0  0  0  0  0
  1  2  1  0
  2  3  2  0
  3  4  1  0
  4  5  1  0
  5  6  2  0
  5  7  1  0
  7  8  1  0
  8  9  2  0
  9 10  1  0
 10 11  2  0
 11 12  1  0
 12 13  2  0
 12 14  1  0
 14 15  1  0
 15 16  1  0
 15 17  1  0
 17 18  1  0
 17 19  1  0
  4 20  2  0
 20 21  1  0
 21 22  1  0
 21 23  2  0
 23 24  1  0
 24 25  1  0
 25 26  1  0
 25 27  1  0
 25 28  1  0
 24 29  1  0
 29 30  2  0
 30  2  1  0
 13  8  1  0
 29 20  1  0
 17 11  1  0
M  END
>  <name>  (197) 
P115579

>  <alias>  (197) 
None

>  <smina_score_min>  (197) 
-8.497

>  <exports>  (197) 
['/opt/xchem-fragalysis-2/maxwin/BulkDock/OUTPUTS/openbind_xx01zvns2b_c2_elabs_1LOUTNY.sdf', '/opt/xchem-fragalysis-2/maxwin/BulkDock/OUTPUTS/openbind_xx01zvns2b_c2_elabs_1LSYIIV.sdf']

>  <tags>  (197) 
syndirella_placed,openbind_xx01zvns2b_c2_elabs,openbind_xx01zvns2b_c2_elabs_scored_6.2plus,syndirella_product,openbind_xx01zvns2b_c2_elabs_scored,openbind_xx01zvns2b_c2_elabs_scored_top80percent,BulkDock Fragalysis export

>  <subsites>  (197) 
1 - Z4590/B/203/1

>  <smiles>  (197) 
Cc1cc(C(=O)Nc2ccc3c(c2)CN(C)C3(C)C)c2c(C)nn(C(C)(C)C)c2n1

>  <HIPPO Pose ID>  (197) 
115579

>  <energy_score>  (197) 
-53.216992

>  <inchikey>  (197) 
UUQFGYJXMOTSFF-UHFFFAOYSA-N

>  <gnina_score_min>  (197) 
6.25

>  <gnina_score>  (197) 
6.265

>  <ref_mols>  (197) 
Z3556a

>  <HIPPO Compound ID>  (197) 
178538

>  <distance_score>  (197) 
0.632576

>  <rmsd(smina/fragmenstein)>  (197) 
0.313

>  <ref_pdb>  (197) 
Z3556a

>  <inspiration_score>  (197) 
None

$$$$
P115584
     RDKit          3D

 30 34  0  0  0  0  0  0  0  0999 V2000
   -9.7203    4.6220  -18.7512 C   0  0  0  0  0  0  0  0  0  0  0  0
   -8.8296    3.5547  -18.1944 C   0  0  0  0  0  0  0  0  0  0  0  0
   -7.7682    4.1919  -17.3389 C   0  0  0  0  0  0  0  0  0  0  0  0
   -8.0303    4.5101  -16.0121 C   0  0  0  0  0  0  0  0  0  0  0  0
   -7.0229    5.1340  -15.2762 C   0  0  0  0  0  0  0  0  0  0  0  0
   -7.2904    5.6121  -13.9188 C   0  0  0  0  0  0  0  0  0  0  0  0
   -7.3097    6.7612  -13.7220 O   0  0  0  0  0  0  0  0  0  0  0  0
   -7.4734    4.4295  -12.9491 N   0  0  0  0  0  0  0  0  0  0  0  0
   -7.8009    4.4117  -11.5992 C   0  0  0  0  0  0  0  0  0  0  0  0
   -7.7997    5.6034  -10.8505 C   0  0  0  0  0  0  0  0  0  0  0  0
   -8.1020    5.5970   -9.4891 C   0  0  0  0  0  0  0  0  0  0  0  0
   -8.4279    4.3880   -8.9144 C   0  0  0  0  0  0  0  0  0  0  0  0
   -8.4461    3.2056   -9.6595 C   0  0  0  0  0  0  0  0  0  0  0  0
   -8.1163    3.1920  -11.0001 C   0  0  0  0  0  0  0  0  0  0  0  0
   -8.8830    2.0853   -8.7712 C   0  0  0  0  0  0  0  0  0  0  0  0
   -9.5394    2.7928   -7.6521 N   0  0  0  0  0  0  0  0  0  0  0  0
   -9.5800    2.0071   -6.4389 C   0  0  0  0  0  0  0  0  0  0  0  0
  -10.5636    2.6261   -5.4581 C   0  0  0  0  0  0  0  0  0  0  0  0
   -8.8264    4.0747   -7.5105 C   0  0  0  0  0  0  0  0  0  0  0  0
   -5.7813    5.3788  -15.8721 C   0  0  0  0  0  0  0  0  0  0  0  0
   -4.5133    5.9060  -15.5441 C   0  0  0  0  0  0  0  0  0  0  0  0
   -4.1042    6.4086  -14.1295 C   0  0  0  0  0  0  0  0  0  0  0  0
   -4.3382    7.8562  -13.7804 C   0  0  0  0  0  0  0  0  0  0  0  0
   -2.9386    7.3525  -13.9697 C   0  0  0  0  0  0  0  0  0  0  0  0
   -3.6670    5.9188  -16.5808 N   0  0  0  0  0  0  0  0  0  0  0  0
   -4.4006    5.3902  -17.5874 N   0  0  0  0  0  0  0  0  0  0  0  0
   -3.8758    5.3493  -18.9369 C   0  0  0  0  0  0  0  0  0  0  0  0
   -2.4582    4.8098  -19.0410 C   0  0  0  0  0  0  0  0  0  0  0  0
   -5.6656    5.0337  -17.2061 C   0  0  0  0  0  0  0  0  0  0  0  0
   -6.6099    4.4753  -17.9795 N   0  0  0  0  0  0  0  0  0  0  0  0
  1  2  1  0
  2  3  1  0
  3  4  2  0
  4  5  1  0
  5  6  1  0
  6  7  2  0
  6  8  1  0
  8  9  1  0
  9 10  2  0
 10 11  1  0
 11 12  2  0
 12 13  1  0
 13 14  2  0
 13 15  1  0
 15 16  1  0
 16 17  1  0
 17 18  1  0
 16 19  1  0
  5 20  2  0
 20 21  1  0
 21 22  1  0
 22 23  1  0
 23 24  1  0
 21 25  2  0
 25 26  1  0
 26 27  1  0
 27 28  1  0
 26 29  1  0
 29 30  2  0
 30  3  1  0
 14  9  1  0
 29 20  1  0
 19 12  1  0
 24 22  1  0
M  END
>  <name>  (198) 
P115584

>  <alias>  (198) 
None

>  <smina_score_min>  (198) 
-7.534

>  <exports>  (198) 
['/opt/xchem-fragalysis-2/maxwin/BulkDock/OUTPUTS/openbind_xx01zvns2b_c2_elabs_1LOUTNY.sdf', '/opt/xchem-fragalysis-2/maxwin/BulkDock/OUTPUTS/openbind_xx01zvns2b_c2_elabs_1LSYIIV.sdf']

>  <tags>  (198) 
syndirella_placed,openbind_xx01zvns2b_c2_elabs,openbind_xx01zvns2b_c2_elabs_scored_6.2plus,syndirella_product,openbind_xx01zvns2b_c2_elabs_scored,openbind_xx01zvns2b_c2_elabs_scored_top80percent,BulkDock Fragalysis export

>  <subsites>  (198) 
1 - Z4590/B/203/1

>  <smiles>  (198) 
CCc1cc(C(=O)Nc2ccc3c(c2)CN(CC)C3)c2c(C3CC3)nn(CC)c2n1

>  <HIPPO Pose ID>  (198) 
115584

>  <energy_score>  (198) 
-23.899914

>  <inchikey>  (198) 
WMFDMHYQLCLMON-UHFFFAOYSA-N

>  <gnina_score_min>  (198) 
6.226

>  <gnina_score>  (198) 
6.274

>  <ref_mols>  (198) 
Z3556a

>  <HIPPO Compound ID>  (198) 
178547

>  <distance_score>  (198) 
0.626342

>  <rmsd(smina/fragmenstein)>  (198) 
0.571

>  <ref_pdb>  (198) 
Z3556a

>  <inspiration_score>  (198) 
None

$$$$
P115599
     RDKit          3D

 31 35  0  0  0  0  0  0  0  0999 V2000
   -9.8099    3.5033  -17.9891 C   0  0  0  0  0  0  0  0  0  0  0  0
   -8.6573    4.3225  -18.4909 C   0  0  0  0  0  0  0  0  0  0  0  0
   -7.5723    4.5904  -17.4833 C   0  0  0  0  0  0  0  0  0  0  0  0
   -7.8434    4.8262  -16.1329 C   0  0  0  0  0  0  0  0  0  0  0  0
   -6.7955    5.1761  -15.2815 C   0  0  0  0  0  0  0  0  0  0  0  0
   -7.0772    5.6262  -13.9158 C   0  0  0  0  0  0  0  0  0  0  0  0
   -6.9724    6.7664  -13.6875 O   0  0  0  0  0  0  0  0  0  0  0  0
   -7.5103    4.4577  -13.0028 N   0  0  0  0  0  0  0  0  0  0  0  0
   -7.8038    4.4341  -11.6398 C   0  0  0  0  0  0  0  0  0  0  0  0
   -7.8364    5.6410  -10.9130 C   0  0  0  0  0  0  0  0  0  0  0  0
   -8.1420    5.6538   -9.5545 C   0  0  0  0  0  0  0  0  0  0  0  0
   -8.4110    4.4405   -8.9604 C   0  0  0  0  0  0  0  0  0  0  0  0
   -8.3879    3.2344   -9.6538 C   0  0  0  0  0  0  0  0  0  0  0  0
   -8.0785    3.2130  -11.0063 C   0  0  0  0  0  0  0  0  0  0  0  0
   -8.7845    2.1286   -8.7339 C   0  0  0  0  0  0  0  0  0  0  0  0
   -9.0914    2.8331   -7.4925 N   0  0  0  0  0  0  0  0  0  0  0  0
   -9.9209    2.1931   -6.4931 C   0  0  0  0  0  0  0  0  0  0  0  0
  -10.0654    2.9371   -5.1798 C   0  0  0  0  0  0  0  0  0  0  0  0
   -8.8671    4.1929   -7.5942 C   0  0  0  0  0  0  0  0  0  0  0  0
   -9.0465    5.0835   -6.7839 O   0  0  0  0  0  0  0  0  0  0  0  0
   -5.5073    5.2733  -15.8044 C   0  0  0  0  0  0  0  0  0  0  0  0
   -4.1974    5.5711  -15.3777 C   0  0  0  0  0  0  0  0  0  0  0  0
   -3.8031    5.8904  -13.9098 C   0  0  0  0  0  0  0  0  0  0  0  0
   -3.8212    4.7767  -12.8923 C   0  0  0  0  0  0  0  0  0  0  0  0
   -2.5126    5.3502  -13.3493 C   0  0  0  0  0  0  0  0  0  0  0  0
   -3.3039    5.5480  -16.3731 N   0  0  0  0  0  0  0  0  0  0  0  0
   -4.0571    5.2406  -17.4537 N   0  0  0  0  0  0  0  0  0  0  0  0
   -3.4546    5.1652  -18.7673 C   0  0  0  0  0  0  0  0  0  0  0  0
   -3.1447    6.5377  -19.3385 C   0  0  0  0  0  0  0  0  0  0  0  0
   -5.3758    5.0418  -17.1610 C   0  0  0  0  0  0  0  0  0  0  0  0
   -6.3443    4.7116  -18.0285 N   0  0  0  0  0  0  0  0  0  0  0  0
  1  2  1  0
  2  3  1  0
  3  4  2  0
  4  5  1  0
  5  6  1  0
  6  7  2  0
  6  8  1  0
  8  9  1  0
  9 10  2  0
 10 11  1  0
 11 12  2  0
 12 13  1  0
 13 14  2  0
 13 15  1  0
 15 16  1  0
 16 17  1  0
 17 18  1  0
 16 19  1  0
 19 20  2  0
  5 21  2  0
 21 22  1  0
 22 23  1  0
 23 24  1  0
 24 25  1  0
 22 26  2  0
 26 27  1  0
 27 28  1  0
 28 29  1  0
 27 30  1  0
 30 31  2  0
 31  3  1  0
 14  9  1  0
 30 21  1  0
 19 12  1  0
 25 23  1  0
M  END
>  <name>  (199) 
P115599

>  <alias>  (199) 
None

>  <smina_score_min>  (199) 
-7.733

>  <exports>  (199) 
['/opt/xchem-fragalysis-2/maxwin/BulkDock/OUTPUTS/openbind_xx01zvns2b_c2_elabs_1LOUTNY.sdf', '/opt/xchem-fragalysis-2/maxwin/BulkDock/OUTPUTS/openbind_xx01zvns2b_c2_elabs_1LSYIIV.sdf']

>  <tags>  (199) 
syndirella_placed,openbind_xx01zvns2b_c2_elabs,openbind_xx01zvns2b_c2_elabs_scored_6.2plus,syndirella_product,openbind_xx01zvns2b_c2_elabs_scored,openbind_xx01zvns2b_c2_elabs_scored_top80percent,BulkDock Fragalysis export

>  <subsites>  (199) 
1 - Z4590/B/203/1

>  <smiles>  (199) 
CCc1cc(C(=O)Nc2ccc3c(c2)CN(CC)C3=O)c2c(C3CC3)nn(CC)c2n1

>  <HIPPO Pose ID>  (199) 
115599

>  <energy_score>  (199) 
-48.788569

>  <inchikey>  (199) 
DDJDFUCVUJSRGZ-UHFFFAOYSA-N

>  <gnina_score_min>  (199) 
6.34

>  <gnina_score>  (199) 
6.383

>  <ref_mols>  (199) 
Z3556a

>  <HIPPO Compound ID>  (199) 
178575

>  <distance_score>  (199) 
0.690474

>  <rmsd(smina/fragmenstein)>  (199) 
0.834

>  <ref_pdb>  (199) 
Z3556a

>  <inspiration_score>  (199) 
None

$$$$
P115600
     RDKit          3D

 31 35  0  0  0  0  0  0  0  0999 V2000
  -10.2458    4.3527  -18.3877 C   0  0  0  0  0  0  0  0  0  0  0  0
   -9.0181    3.5312  -18.0829 C   0  0  0  0  0  0  0  0  0  0  0  0
   -7.9557    4.2583  -17.3015 C   0  0  0  0  0  0  0  0  0  0  0  0
   -8.1738    4.5659  -15.9583 C   0  0  0  0  0  0  0  0  0  0  0  0
   -7.1506    5.1780  -15.2344 C   0  0  0  0  0  0  0  0  0  0  0  0
   -7.3970    5.7084  -13.8844 C   0  0  0  0  0  0  0  0  0  0  0  0
   -7.2490    6.8551  -13.7229 O   0  0  0  0  0  0  0  0  0  0  0  0
   -7.7373    4.5903  -12.8740 N   0  0  0  0  0  0  0  0  0  0  0  0
   -8.0494    4.6605  -11.5162 C   0  0  0  0  0  0  0  0  0  0  0  0
   -7.9905    5.8943  -10.8423 C   0  0  0  0  0  0  0  0  0  0  0  0
   -8.1769    5.9796   -9.4597 C   0  0  0  0  0  0  0  0  0  0  0  0
   -8.4460    4.8177   -8.7662 C   0  0  0  0  0  0  0  0  0  0  0  0
   -8.5723    3.5958   -9.4476 C   0  0  0  0  0  0  0  0  0  0  0  0
   -8.3596    3.4929  -10.8158 C   0  0  0  0  0  0  0  0  0  0  0  0
   -8.9026    2.5219   -8.4578 C   0  0  0  0  0  0  0  0  0  0  0  0
   -9.2950    3.2873   -7.2549 N   0  0  0  0  0  0  0  0  0  0  0  0
   -9.2412    2.5058   -6.0463 C   0  0  0  0  0  0  0  0  0  0  0  0
   -8.5539    4.5689   -7.2754 C   0  0  0  0  0  0  0  0  0  0  0  0
   -9.3084    5.6332   -6.4620 C   0  0  0  0  0  0  0  0  0  0  0  0
   -7.1087    4.5423   -6.7308 C   0  0  0  0  0  0  0  0  0  0  0  0
   -5.9183    5.4000  -15.8639 C   0  0  0  0  0  0  0  0  0  0  0  0
   -4.6323    5.9042  -15.5618 C   0  0  0  0  0  0  0  0  0  0  0  0
   -4.1774    6.3898  -14.1541 C   0  0  0  0  0  0  0  0  0  0  0  0
   -2.9180    7.2061  -14.0024 C   0  0  0  0  0  0  0  0  0  0  0  0
   -4.2567    7.8615  -13.8373 C   0  0  0  0  0  0  0  0  0  0  0  0
   -3.8102    5.9071  -16.6170 N   0  0  0  0  0  0  0  0  0  0  0  0
   -4.5711    5.3922  -17.6081 N   0  0  0  0  0  0  0  0  0  0  0  0
   -4.0663    5.3335  -18.9647 C   0  0  0  0  0  0  0  0  0  0  0  0
   -2.6206    4.8746  -19.0788 C   0  0  0  0  0  0  0  0  0  0  0  0
   -5.8373    5.0589  -17.2046 C   0  0  0  0  0  0  0  0  0  0  0  0
   -6.8083    4.5215  -17.9652 N   0  0  0  0  0  0  0  0  0  0  0  0
  1  2  1  0
  2  3  1  0
  3  4  2  0
  4  5  1  0
  5  6  1  0
  6  7  2  0
  6  8  1  0
  8  9  1  0
  9 10  2  0
 10 11  1  0
 11 12  2  0
 12 13  1  0
 13 14  2  0
 13 15  1  0
 15 16  1  0
 16 17  1  0
 16 18  1  0
 18 19  1  0
 18 20  1  0
  5 21  2  0
 21 22  1  0
 22 23  1  0
 23 24  1  0
 24 25  1  0
 22 26  2  0
 26 27  1  0
 27 28  1  0
 28 29  1  0
 27 30  1  0
 30 31  2  0
 31  3  1  0
 14  9  1  0
 30 21  1  0
 18 12  1  0
 25 23  1  0
M  END
>  <name>  (200) 
P115600

>  <alias>  (200) 
None

>  <smina_score_min>  (200) 
-7.174

>  <exports>  (200) 
['/opt/xchem-fragalysis-2/maxwin/BulkDock/OUTPUTS/openbind_xx01zvns2b_c2_elabs_1LOUTNY.sdf', '/opt/xchem-fragalysis-2/maxwin/BulkDock/OUTPUTS/openbind_xx01zvns2b_c2_elabs_1LSYIIV.sdf']

>  <tags>  (200) 
syndirella_placed,openbind_xx01zvns2b_c2_elabs,openbind_xx01zvns2b_c2_elabs_scored_6.2plus,syndirella_product,openbind_xx01zvns2b_c2_elabs_scored,openbind_xx01zvns2b_c2_elabs_scored_top80percent,BulkDock Fragalysis export

>  <subsites>  (200) 
1 - Z4590/B/203/1

>  <smiles>  (200) 
CCc1cc(C(=O)Nc2ccc3c(c2)CN(C)C3(C)C)c2c(C3CC3)nn(CC)c2n1

>  <HIPPO Pose ID>  (200) 
115600

>  <energy_score>  (200) 
-33.414651

>  <inchikey>  (200) 
OERNWNKNAQUUOD-UHFFFAOYSA-N

>  <gnina_score_min>  (200) 
6.455

>  <gnina_score>  (200) 
6.444

>  <ref_mols>  (200) 
Z3556a

>  <HIPPO Compound ID>  (200) 
178578

>  <distance_score>  (200) 
0.662607

>  <rmsd(smina/fragmenstein)>  (200) 
0.315

>  <ref_pdb>  (200) 
Z3556a

>  <inspiration_score>  (200) 
None

$$$$
P115606
     RDKit          3D

 31 35  0  0  0  0  0  0  0  0999 V2000
   -4.2900   10.1600  -21.8140 C   0  0  0  0  0  0  0  0  0  0  0  0
   -4.2336    8.8892  -21.0208 C   0  0  0  0  0  0  0  0  0  0  0  0
   -3.3681    8.7731  -19.9275 C   0  0  0  0  0  0  0  0  0  0  0  0
   -3.3278    7.5955  -19.1768 C   0  0  0  0  0  0  0  0  0  0  0  0
   -4.1654    6.5183  -19.4947 C   0  0  0  0  0  0  0  0  0  0  0  0
   -4.1016    5.2298  -18.7128 C   0  0  0  0  0  0  0  0  0  0  0  0
   -4.6766    5.3541  -17.3850 N   0  0  0  0  0  0  0  0  0  0  0  0
   -3.9117    5.7581  -16.3362 N   0  0  0  0  0  0  0  0  0  0  0  0
   -4.7626    5.7115  -15.3043 C   0  0  0  0  0  0  0  0  0  0  0  0
   -6.0409    5.2339  -15.6642 C   0  0  0  0  0  0  0  0  0  0  0  0
   -7.2705    4.9675  -15.0451 C   0  0  0  0  0  0  0  0  0  0  0  0
   -7.4701    5.4104  -13.6502 C   0  0  0  0  0  0  0  0  0  0  0  0
   -7.2369    6.5363  -13.4355 O   0  0  0  0  0  0  0  0  0  0  0  0
   -7.9483    4.2841  -12.6983 N   0  0  0  0  0  0  0  0  0  0  0  0
   -8.1411    4.2866  -11.3107 C   0  0  0  0  0  0  0  0  0  0  0  0
   -7.8469    5.4564  -10.5782 C   0  0  0  0  0  0  0  0  0  0  0  0
   -7.9489    5.4989   -9.1840 C   0  0  0  0  0  0  0  0  0  0  0  0
   -8.3662    4.3586   -8.5317 C   0  0  0  0  0  0  0  0  0  0  0  0
   -8.7035    3.2152   -9.2564 C   0  0  0  0  0  0  0  0  0  0  0  0
   -8.5855    3.1414  -10.6403 C   0  0  0  0  0  0  0  0  0  0  0  0
   -9.1631    2.2177   -8.2750 C   0  0  0  0  0  0  0  0  0  0  0  0
   -9.5735    1.1003   -8.4945 O   0  0  0  0  0  0  0  0  0  0  0  0
   -9.0918    2.7991   -7.0239 N   0  0  0  0  0  0  0  0  0  0  0  0
   -8.5105    4.1095   -7.0702 C   0  0  0  0  0  0  0  0  0  0  0  0
   -8.3100    4.4724  -15.8358 C   0  0  0  0  0  0  0  0  0  0  0  0
   -8.1024    4.3183  -17.2100 C   0  0  0  0  0  0  0  0  0  0  0  0
   -9.2299    3.8631  -18.0939 C   0  0  0  0  0  0  0  0  0  0  0  0
   -6.9318    4.5743  -17.8383 N   0  0  0  0  0  0  0  0  0  0  0  0
   -5.9552    5.0165  -17.0275 C   0  0  0  0  0  0  0  0  0  0  0  0
   -5.0539    6.6494  -20.5695 C   0  0  0  0  0  0  0  0  0  0  0  0
   -5.0829    7.8214  -21.3285 C   0  0  0  0  0  0  0  0  0  0  0  0
  1  2  1  0
  2  3  2  0
  3  4  1  0
  4  5  2  0
  5  6  1  0
  6  7  1  0
  7  8  1  0
  8  9  2  0
  9 10  1  0
 10 11  2  0
 11 12  1  0
 12 13  2  0
 12 14  1  0
 14 15  1  0
 15 16  2  0
 16 17  1  0
 17 18  2  0
 18 19  1  0
 19 20  2  0
 19 21  1  0
 21 22  2  0
 21 23  1  0
 23 24  1  0
 11 25  1  0
 25 26  2  0
 26 27  1  0
 26 28  1  0
 28 29  2  0
  5 30  1  0
 30 31  2  0
 31  2  1  0
 29  7  1  0
 29 10  1  0
 20 15  1  0
 24 18  1  0
M  END
>  <name>  (201) 
P115606

>  <alias>  (201) 
None

>  <smina_score_min>  (201) 
-8.859

>  <exports>  (201) 
['/opt/xchem-fragalysis-2/maxwin/BulkDock/OUTPUTS/openbind_xx01zvns2b_c2_elabs_1LOUTNY.sdf', '/opt/xchem-fragalysis-2/maxwin/BulkDock/OUTPUTS/openbind_xx01zvns2b_c2_elabs_1LSYIIV.sdf']

>  <tags>  (201) 
syndirella_placed,openbind_xx01zvns2b_c2_elabs,openbind_xx01zvns2b_c2_elabs_scored_6.2plus,syndirella_product,openbind_xx01zvns2b_c2_elabs_scored,openbind_xx01zvns2b_c2_elabs_scored_top80percent,BulkDock Fragalysis export

>  <subsites>  (201) 
1 - Z4590/B/203/1

>  <smiles>  (201) 
Cc1ccc(Cn2ncc3c(C(=O)Nc4ccc5c(c4)C(=O)NC5)cc(C)nc32)cc1

>  <HIPPO Pose ID>  (201) 
115606

>  <energy_score>  (201) 
-33.103671

>  <inchikey>  (201) 
NJCQHLVQMLCBBD-UHFFFAOYSA-N

>  <gnina_score_min>  (201) 
6.22

>  <gnina_score>  (201) 
6.128

>  <ref_mols>  (201) 
Z3556a

>  <HIPPO Compound ID>  (201) 
178588

>  <distance_score>  (201) 
0.406913

>  <rmsd(smina/fragmenstein)>  (201) 
0.892

>  <ref_pdb>  (201) 
Z3556a

>  <inspiration_score>  (201) 
None

$$$$
P115608
     RDKit          3D

 31 35  0  0  0  0  0  0  0  0999 V2000
   -4.5002   10.1445  -21.9790 C   0  0  0  0  0  0  0  0  0  0  0  0
   -4.3734    8.8880  -21.1715 C   0  0  0  0  0  0  0  0  0  0  0  0
   -3.5050    8.8313  -20.0757 C   0  0  0  0  0  0  0  0  0  0  0  0
   -3.4027    7.6663  -19.3107 C   0  0  0  0  0  0  0  0  0  0  0  0
   -4.1804    6.5418  -19.6168 C   0  0  0  0  0  0  0  0  0  0  0  0
   -4.0556    5.2693  -18.8153 C   0  0  0  0  0  0  0  0  0  0  0  0
   -4.6329    5.3902  -17.4887 N   0  0  0  0  0  0  0  0  0  0  0  0
   -3.8750    5.8139  -16.4420 N   0  0  0  0  0  0  0  0  0  0  0  0
   -4.7325    5.7855  -15.4150 C   0  0  0  0  0  0  0  0  0  0  0  0
   -6.0071    5.3043  -15.7780 C   0  0  0  0  0  0  0  0  0  0  0  0
   -7.2416    5.0557  -15.1710 C   0  0  0  0  0  0  0  0  0  0  0  0
   -7.4623    5.5052  -13.7876 C   0  0  0  0  0  0  0  0  0  0  0  0
   -7.3887    6.6522  -13.5805 O   0  0  0  0  0  0  0  0  0  0  0  0
   -7.7136    4.3270  -12.8204 N   0  0  0  0  0  0  0  0  0  0  0  0
   -8.0114    4.3211  -11.4555 C   0  0  0  0  0  0  0  0  0  0  0  0
   -8.0034    5.5203  -10.7218 C   0  0  0  0  0  0  0  0  0  0  0  0
   -8.2436    5.5260   -9.3451 C   0  0  0  0  0  0  0  0  0  0  0  0
   -8.4933    4.3193   -8.7202 C   0  0  0  0  0  0  0  0  0  0  0  0
   -8.5150    3.1295   -9.4402 C   0  0  0  0  0  0  0  0  0  0  0  0
   -8.2762    3.1095  -10.8095 C   0  0  0  0  0  0  0  0  0  0  0  0
   -8.8016    1.9916   -8.5106 C   0  0  0  0  0  0  0  0  0  0  0  0
   -8.9328    2.5939   -7.1618 N   0  0  0  0  0  0  0  0  0  0  0  0
  -10.1425    2.1957   -6.4718 C   0  0  0  0  0  0  0  0  0  0  0  0
   -8.7609    4.0478   -7.2771 C   0  0  0  0  0  0  0  0  0  0  0  0
   -8.2779    4.5422  -15.9513 C   0  0  0  0  0  0  0  0  0  0  0  0
   -8.0601    4.3507  -17.3166 C   0  0  0  0  0  0  0  0  0  0  0  0
   -9.1903    3.8811  -18.1893 C   0  0  0  0  0  0  0  0  0  0  0  0
   -6.8824    4.5864  -17.9421 N   0  0  0  0  0  0  0  0  0  0  0  0
   -5.9119    5.0516  -17.1345 C   0  0  0  0  0  0  0  0  0  0  0  0
   -5.0707    6.6122  -20.6958 C   0  0  0  0  0  0  0  0  0  0  0  0
   -5.1618    7.7719  -21.4687 C   0  0  0  0  0  0  0  0  0  0  0  0
  1  2  1  0
  2  3  2  0
  3  4  1  0
  4  5  2  0
  5  6  1  0
  6  7  1  0
  7  8  1  0
  8  9  2  0
  9 10  1  0
 10 11  2  0
 11 12  1  0
 12 13  2  0
 12 14  1  0
 14 15  1  0
 15 16  2  0
 16 17  1  0
 17 18  2  0
 18 19  1  0
 19 20  2  0
 19 21  1  0
 21 22  1  0
 22 23  1  0
 22 24  1  0
 11 25  1  0
 25 26  2  0
 26 27  1  0
 26 28  1  0
 28 29  2  0
  5 30  1  0
 30 31  2  0
 31  2  1  0
 29  7  1  0
 29 10  1  0
 20 15  1  0
 24 18  1  0
M  END
>  <name>  (202) 
P115608

>  <alias>  (202) 
None

>  <smina_score_min>  (202) 
-8.782

>  <exports>  (202) 
['/opt/xchem-fragalysis-2/maxwin/BulkDock/OUTPUTS/openbind_xx01zvns2b_c2_elabs_1LOUTNY.sdf', '/opt/xchem-fragalysis-2/maxwin/BulkDock/OUTPUTS/openbind_xx01zvns2b_c2_elabs_1LSYIIV.sdf']

>  <tags>  (202) 
syndirella_placed,openbind_xx01zvns2b_c2_elabs,openbind_xx01zvns2b_c2_elabs_scored_6.2plus,syndirella_product,openbind_xx01zvns2b_c2_elabs_scored,openbind_xx01zvns2b_c2_elabs_scored_top80percent,BulkDock Fragalysis export

>  <subsites>  (202) 
1 - Z4590/B/203/1

>  <smiles>  (202) 
Cc1ccc(Cn2ncc3c(C(=O)Nc4ccc5c(c4)CN(C)C5)cc(C)nc32)cc1

>  <HIPPO Pose ID>  (202) 
115608

>  <energy_score>  (202) 
-45.083553

>  <inchikey>  (202) 
GXDKRODZXOHXJS-UHFFFAOYSA-N

>  <gnina_score_min>  (202) 
6.216

>  <gnina_score>  (202) 
6.162

>  <ref_mols>  (202) 
Z3556a

>  <HIPPO Compound ID>  (202) 
178590

>  <distance_score>  (202) 
0.417518

>  <rmsd(smina/fragmenstein)>  (202) 
0.783

>  <ref_pdb>  (202) 
Z3556a

>  <inspiration_score>  (202) 
None

$$$$
P115615
     RDKit          3D

 31 35  0  0  0  0  0  0  0  0999 V2000
   -9.3906    2.9411  -18.1395 C   0  0  0  0  0  0  0  0  0  0  0  0
   -9.2225    4.4076  -17.9066 C   0  0  0  0  0  0  0  0  0  0  0  0
   -7.9986    4.6573  -17.0712 C   0  0  0  0  0  0  0  0  0  0  0  0
   -8.0870    4.7403  -15.6832 C   0  0  0  0  0  0  0  0  0  0  0  0
   -6.9307    5.0221  -14.9551 C   0  0  0  0  0  0  0  0  0  0  0  0
   -7.0073    5.3948  -13.5266 C   0  0  0  0  0  0  0  0  0  0  0  0
   -6.5579    6.4374  -13.2453 O   0  0  0  0  0  0  0  0  0  0  0  0
   -7.6556    4.3053  -12.6327 N   0  0  0  0  0  0  0  0  0  0  0  0
   -7.9609    4.3137  -11.2658 C   0  0  0  0  0  0  0  0  0  0  0  0
   -7.6990    5.4781  -10.5131 C   0  0  0  0  0  0  0  0  0  0  0  0
   -7.8858    5.5186   -9.1282 C   0  0  0  0  0  0  0  0  0  0  0  0
   -8.3483    4.3795   -8.5058 C   0  0  0  0  0  0  0  0  0  0  0  0
   -8.6626    3.2445   -9.2541 C   0  0  0  0  0  0  0  0  0  0  0  0
   -8.4740    3.1766  -10.6308 C   0  0  0  0  0  0  0  0  0  0  0  0
   -9.1613    2.2403   -8.2994 C   0  0  0  0  0  0  0  0  0  0  0  0
   -9.5571    1.1229   -8.5430 O   0  0  0  0  0  0  0  0  0  0  0  0
   -9.1381    2.8103   -7.0412 N   0  0  0  0  0  0  0  0  0  0  0  0
   -8.5547    4.1201   -7.0535 C   0  0  0  0  0  0  0  0  0  0  0  0
   -5.7129    5.1500  -15.6510 C   0  0  0  0  0  0  0  0  0  0  0  0
   -4.3446    5.3720  -15.3606 C   0  0  0  0  0  0  0  0  0  0  0  0
   -3.6987    5.5400  -14.0336 C   0  0  0  0  0  0  0  0  0  0  0  0
   -3.5873    5.3897  -16.4645 N   0  0  0  0  0  0  0  0  0  0  0  0
   -4.4642    5.2272  -17.4996 N   0  0  0  0  0  0  0  0  0  0  0  0
   -3.9954    5.2672  -18.8495 C   0  0  0  0  0  0  0  0  0  0  0  0
   -2.6137    5.2737  -19.0952 C   0  0  0  0  0  0  0  0  0  0  0  0
   -2.1285    5.3011  -20.4053 C   0  0  0  0  0  0  0  0  0  0  0  0
   -3.0119    5.3385  -21.4818 C   0  0  0  0  0  0  0  0  0  0  0  0
   -4.3844    5.3464  -21.2495 C   0  0  0  0  0  0  0  0  0  0  0  0
   -4.8765    5.3058  -19.9408 C   0  0  0  0  0  0  0  0  0  0  0  0
   -5.7590    5.0451  -17.0333 C   0  0  0  0  0  0  0  0  0  0  0  0
   -6.8602    4.8089  -17.7678 N   0  0  0  0  0  0  0  0  0  0  0  0
  1  2  1  0
  2  3  1  0
  3  4  2  0
  4  5  1  0
  5  6  1  0
  6  7  2  0
  6  8  1  0
  8  9  1  0
  9 10  2  0
 10 11  1  0
 11 12  2  0
 12 13  1  0
 13 14  2  0
 13 15  1  0
 15 16  2  0
 15 17  1  0
 17 18  1  0
  5 19  2  0
 19 20  1  0
 20 21  1  0
 20 22  2  0
 22 23  1  0
 23 24  1  0
 24 25  2  0
 25 26  1  0
 26 27  2  0
 27 28  1  0
 28 29  2  0
 23 30  1  0
 30 31  2  0
 31  3  1  0
 14  9  1  0
 30 19  1  0
 18 12  1  0
 29 24  1  0
M  END
>  <name>  (203) 
P115615

>  <alias>  (203) 
None

>  <smina_score_min>  (203) 
-8.614

>  <exports>  (203) 
['/opt/xchem-fragalysis-2/maxwin/BulkDock/OUTPUTS/openbind_xx01zvns2b_c2_elabs_1LOUTNY.sdf', '/opt/xchem-fragalysis-2/maxwin/BulkDock/OUTPUTS/openbind_xx01zvns2b_c2_elabs_1LSYIIV.sdf']

>  <tags>  (203) 
syndirella_placed,openbind_xx01zvns2b_c2_elabs,openbind_xx01zvns2b_c2_elabs_scored_6.2plus,syndirella_product,openbind_xx01zvns2b_c2_elabs_scored,openbind_xx01zvns2b_c2_elabs_scored_top80percent,BulkDock Fragalysis export

>  <subsites>  (203) 
1 - Z4590/B/203/1

>  <smiles>  (203) 
CCc1cc(C(=O)Nc2ccc3c(c2)C(=O)NC3)c2c(C)nn(-c3ccccc3)c2n1

>  <HIPPO Pose ID>  (203) 
115615

>  <energy_score>  (203) 
-54.546152

>  <inchikey>  (203) 
KXPBGHWVBCEABQ-UHFFFAOYSA-N

>  <gnina_score_min>  (203) 
6.266

>  <gnina_score>  (203) 
6.259

>  <ref_mols>  (203) 
Z3556a

>  <HIPPO Compound ID>  (203) 
178601

>  <distance_score>  (203) 
0.479279

>  <rmsd(smina/fragmenstein)>  (203) 
0.485

>  <ref_pdb>  (203) 
Z3556a

>  <inspiration_score>  (203) 
None

$$$$
P115617
     RDKit          3D

 31 35  0  0  0  0  0  0  0  0999 V2000
   -8.8833    3.6237  -19.0335 C   0  0  0  0  0  0  0  0  0  0  0  0
   -9.0881    4.0757  -17.6103 C   0  0  0  0  0  0  0  0  0  0  0  0
   -7.8404    4.5702  -16.9331 C   0  0  0  0  0  0  0  0  0  0  0  0
   -7.8852    4.8439  -15.5777 C   0  0  0  0  0  0  0  0  0  0  0  0
   -6.7186    5.2786  -14.9474 C   0  0  0  0  0  0  0  0  0  0  0  0
   -6.7638    5.6565  -13.5305 C   0  0  0  0  0  0  0  0  0  0  0  0
   -6.4227    6.7258  -13.2152 O   0  0  0  0  0  0  0  0  0  0  0  0
   -7.3379    4.5018  -12.6873 N   0  0  0  0  0  0  0  0  0  0  0  0
   -7.6883    4.4531  -11.3473 C   0  0  0  0  0  0  0  0  0  0  0  0
   -7.6178    5.5972  -10.5338 C   0  0  0  0  0  0  0  0  0  0  0  0
   -7.9826    5.5411   -9.1874 C   0  0  0  0  0  0  0  0  0  0  0  0
   -8.4190    4.3311   -8.6913 C   0  0  0  0  0  0  0  0  0  0  0  0
   -8.4922    3.1987   -9.5047 C   0  0  0  0  0  0  0  0  0  0  0  0
   -8.1313    3.2355  -10.8344 C   0  0  0  0  0  0  0  0  0  0  0  0
   -8.9877    2.0505   -8.6926 C   0  0  0  0  0  0  0  0  0  0  0  0
   -9.6266    2.7115   -7.5320 N   0  0  0  0  0  0  0  0  0  0  0  0
   -9.6183    1.8493   -6.3752 C   0  0  0  0  0  0  0  0  0  0  0  0
   -8.8695    3.9603   -7.3153 C   0  0  0  0  0  0  0  0  0  0  0  0
   -5.5370    5.3941  -15.6872 C   0  0  0  0  0  0  0  0  0  0  0  0
   -4.1728    5.6898  -15.4711 C   0  0  0  0  0  0  0  0  0  0  0  0
   -3.4935    6.0231  -14.1932 C   0  0  0  0  0  0  0  0  0  0  0  0
   -3.4561    5.6073  -16.5987 N   0  0  0  0  0  0  0  0  0  0  0  0
   -4.3695    5.3437  -17.5809 N   0  0  0  0  0  0  0  0  0  0  0  0
   -3.9649    5.3150  -18.9492 C   0  0  0  0  0  0  0  0  0  0  0  0
   -4.9002    5.3111  -19.9941 C   0  0  0  0  0  0  0  0  0  0  0  0
   -4.4748    5.2973  -21.3260 C   0  0  0  0  0  0  0  0  0  0  0  0
   -3.1155    5.2763  -21.6264 C   0  0  0  0  0  0  0  0  0  0  0  0
   -2.1789    5.2818  -20.5951 C   0  0  0  0  0  0  0  0  0  0  0  0
   -2.5974    5.3109  -19.2622 C   0  0  0  0  0  0  0  0  0  0  0  0
   -5.6323    5.1392  -17.0440 C   0  0  0  0  0  0  0  0  0  0  0  0
   -6.7442    4.7486  -17.6905 N   0  0  0  0  0  0  0  0  0  0  0  0
  1  2  1  0
  2  3  1  0
  3  4  2  0
  4  5  1  0
  5  6  1  0
  6  7  2  0
  6  8  1  0
  8  9  1  0
  9 10  2  0
 10 11  1  0
 11 12  2  0
 12 13  1  0
 13 14  2  0
 13 15  1  0
 15 16  1  0
 16 17  1  0
 16 18  1  0
  5 19  2  0
 19 20  1  0
 20 21  1  0
 20 22  2  0
 22 23  1  0
 23 24  1  0
 24 25  2  0
 25 26  1  0
 26 27  2  0
 27 28  1  0
 28 29  2  0
 23 30  1  0
 30 31  2  0
 31  3  1  0
 14  9  1  0
 30 19  1  0
 18 12  1  0
 29 24  1  0
M  END
>  <name>  (204) 
P115617

>  <alias>  (204) 
None

>  <smina_score_min>  (204) 
-8.647

>  <exports>  (204) 
['/opt/xchem-fragalysis-2/maxwin/BulkDock/OUTPUTS/openbind_xx01zvns2b_c2_elabs_1LOUTNY.sdf', '/opt/xchem-fragalysis-2/maxwin/BulkDock/OUTPUTS/openbind_xx01zvns2b_c2_elabs_1LSYIIV.sdf']

>  <tags>  (204) 
syndirella_placed,openbind_xx01zvns2b_c2_elabs,openbind_xx01zvns2b_c2_elabs_scored_6.2plus,syndirella_product,openbind_xx01zvns2b_c2_elabs_scored,openbind_xx01zvns2b_c2_elabs_scored_top80percent,BulkDock Fragalysis export

>  <subsites>  (204) 
1 - Z4590/B/203/1

>  <smiles>  (204) 
CCc1cc(C(=O)Nc2ccc3c(c2)CN(C)C3)c2c(C)nn(-c3ccccc3)c2n1

>  <HIPPO Pose ID>  (204) 
115617

>  <energy_score>  (204) 
-106.193369

>  <inchikey>  (204) 
MNOKYOYMRRRKEM-UHFFFAOYSA-N

>  <gnina_score_min>  (204) 
6.434

>  <gnina_score>  (204) 
6.198

>  <ref_mols>  (204) 
Z3556a

>  <HIPPO Compound ID>  (204) 
178603

>  <distance_score>  (204) 
0.647293

>  <rmsd(smina/fragmenstein)>  (204) 
0.67

>  <ref_pdb>  (204) 
Z3556a

>  <inspiration_score>  (204) 
None

$$$$
P115626
     RDKit          3D

 31 35  0  0  0  0  0  0  0  0999 V2000
  -10.7054    2.3596   -5.6331 C   0  0  0  0  0  0  0  0  0  0  0  0
   -9.7611    1.7990   -6.6847 C   0  0  0  0  0  0  0  0  0  0  0  0
   -9.5727    2.7442   -7.7715 N   0  0  0  0  0  0  0  0  0  0  0  0
   -8.7979    3.9449   -7.4038 C   0  0  0  0  0  0  0  0  0  0  0  0
   -8.1538    4.3579   -8.6888 C   0  0  0  0  0  0  0  0  0  0  0  0
   -7.5632    5.5547   -9.0432 C   0  0  0  0  0  0  0  0  0  0  0  0
   -6.9856    5.6549  -10.3134 C   0  0  0  0  0  0  0  0  0  0  0  0
   -7.0107    4.5683  -11.1995 C   0  0  0  0  0  0  0  0  0  0  0  0
   -6.4960    4.6606  -12.4874 N   0  0  0  0  0  0  0  0  0  0  0  0
   -5.6709    5.7884  -13.1652 C   0  0  0  0  0  0  0  0  0  0  0  0
   -5.2324    6.7761  -12.7221 O   0  0  0  0  0  0  0  0  0  0  0  0
   -5.5634    5.5118  -14.6098 C   0  0  0  0  0  0  0  0  0  0  0  0
   -6.7376    5.2005  -15.2809 C   0  0  0  0  0  0  0  0  0  0  0  0
   -6.6996    4.8558  -16.6283 C   0  0  0  0  0  0  0  0  0  0  0  0
   -7.8918    4.3991  -17.2848 C   0  0  0  0  0  0  0  0  0  0  0  0
   -8.1358    4.5615  -18.6380 C   0  0  0  0  0  0  0  0  0  0  0  0
   -9.4189    4.3646  -19.1161 C   0  0  0  0  0  0  0  0  0  0  0  0
  -10.3913    4.0168  -18.2317 C   0  0  0  0  0  0  0  0  0  0  0  0
  -10.1096    3.6673  -16.9837 N   0  0  0  0  0  0  0  0  0  0  0  0
   -8.8858    3.8376  -16.5302 C   0  0  0  0  0  0  0  0  0  0  0  0
   -5.6073    4.9339  -17.3973 N   0  0  0  0  0  0  0  0  0  0  0  0
   -4.5145    5.3032  -16.7216 C   0  0  0  0  0  0  0  0  0  0  0  0
   -4.3999    5.5927  -15.3683 C   0  0  0  0  0  0  0  0  0  0  0  0
   -3.0283    5.8887  -15.1958 C   0  0  0  0  0  0  0  0  0  0  0  0
   -2.3225    6.2641  -13.9449 C   0  0  0  0  0  0  0  0  0  0  0  0
   -2.3456    5.8071  -16.3506 N   0  0  0  0  0  0  0  0  0  0  0  0
   -3.2751    5.4443  -17.2553 N   0  0  0  0  0  0  0  0  0  0  0  0
   -2.9161    5.2194  -18.6327 C   0  0  0  0  0  0  0  0  0  0  0  0
   -7.6325    3.3685  -10.8357 C   0  0  0  0  0  0  0  0  0  0  0  0
   -8.1894    3.2827   -9.5747 C   0  0  0  0  0  0  0  0  0  0  0  0
   -8.8662    2.1271   -8.9143 C   0  0  0  0  0  0  0  0  0  0  0  0
  1  2  1  0
  2  3  1  0
  3  4  1  0
  4  5  1  0
  5  6  2  0
  6  7  1  0
  7  8  2  0
  8  9  1  0
  9 10  1  0
 10 11  2  0
 10 12  1  0
 12 13  2  0
 13 14  1  0
 14 15  1  0
 15 16  2  0
 16 17  1  0
 17 18  2  0
 18 19  1  0
 19 20  2  0
 14 21  2  0
 21 22  1  0
 22 23  2  0
 23 24  1  0
 24 25  1  0
 24 26  2  0
 26 27  1  0
 27 28  1  0
  8 29  1  0
 29 30  2  0
 30 31  1  0
 31  3  1  0
 30  5  1  0
 23 12  1  0
 20 15  1  0
 27 22  1  0
M  END
>  <name>  (205) 
P115626

>  <alias>  (205) 
None

>  <smina_score_min>  (205) 
-7.649

>  <exports>  (205) 
['/opt/xchem-fragalysis-2/maxwin/BulkDock/OUTPUTS/openbind_xx01zvns2b_c2_elabs_1LOUTNY.sdf', '/opt/xchem-fragalysis-2/maxwin/BulkDock/OUTPUTS/openbind_xx01zvns2b_c2_elabs_1LSYIIV.sdf']

>  <tags>  (205) 
syndirella_placed,openbind_xx01zvns2b_c2_elabs,openbind_xx01zvns2b_c2_elabs_scored_6.2plus,syndirella_product,openbind_xx01zvns2b_c2_elabs_scored,openbind_xx01zvns2b_c2_elabs_scored_top80percent,BulkDock Fragalysis export

>  <subsites>  (205) 
1 - Z4590/B/203/1

>  <smiles>  (205) 
CCN1Cc2ccc(NC(=O)c3cc(-c4cccnc4)nc4c3c(C)nn4C)cc2C1

>  <HIPPO Pose ID>  (205) 
115626

>  <energy_score>  (205) 
-11.704074

>  <inchikey>  (205) 
QSWJVBGFOGLSAI-UHFFFAOYSA-N

>  <gnina_score_min>  (205) 
6.228

>  <gnina_score>  (205) 
6.072

>  <ref_mols>  (205) 
Z3556a

>  <HIPPO Compound ID>  (205) 
178622

>  <distance_score>  (205) 
1.480243

>  <rmsd(smina/fragmenstein)>  (205) 
1.1

>  <ref_pdb>  (205) 
Z3556a

>  <inspiration_score>  (205) 
None

$$$$
P115638
     RDKit          3D

 31 35  0  0  0  0  0  0  0  0999 V2000
   -9.2838    3.9163  -18.2045 C   0  0  0  0  0  0  0  0  0  0  0  0
   -8.1067    4.3782  -17.3937 C   0  0  0  0  0  0  0  0  0  0  0  0
   -8.2471    4.6015  -16.0297 C   0  0  0  0  0  0  0  0  0  0  0  0
   -7.1451    5.0698  -15.3151 C   0  0  0  0  0  0  0  0  0  0  0  0
   -7.2890    5.5252  -13.9266 C   0  0  0  0  0  0  0  0  0  0  0  0
   -7.1329    6.6601  -13.7056 O   0  0  0  0  0  0  0  0  0  0  0  0
   -7.6100    4.3565  -12.9743 N   0  0  0  0  0  0  0  0  0  0  0  0
   -7.8906    4.3520  -11.6102 C   0  0  0  0  0  0  0  0  0  0  0  0
   -7.8046    5.5359  -10.8535 C   0  0  0  0  0  0  0  0  0  0  0  0
   -8.0726    5.5381   -9.4819 C   0  0  0  0  0  0  0  0  0  0  0  0
   -8.4367    4.3443   -8.8969 C   0  0  0  0  0  0  0  0  0  0  0  0
   -8.5247    3.1686   -9.6462 C   0  0  0  0  0  0  0  0  0  0  0  0
   -8.2469    3.1485  -11.0007 C   0  0  0  0  0  0  0  0  0  0  0  0
   -8.9479    2.0565   -8.7410 C   0  0  0  0  0  0  0  0  0  0  0  0
   -9.5450    2.7718   -7.5902 N   0  0  0  0  0  0  0  0  0  0  0  0
   -9.5021    1.9835   -6.3826 C   0  0  0  0  0  0  0  0  0  0  0  0
   -8.7990    4.0387   -7.4784 C   0  0  0  0  0  0  0  0  0  0  0  0
   -5.9174    5.2266  -15.9700 C   0  0  0  0  0  0  0  0  0  0  0  0
   -4.5858    5.5783  -15.6483 C   0  0  0  0  0  0  0  0  0  0  0  0
   -4.0237    5.9302  -14.3196 C   0  0  0  0  0  0  0  0  0  0  0  0
   -3.7827    5.5340  -16.7179 N   0  0  0  0  0  0  0  0  0  0  0  0
   -4.6104    5.2386  -17.7653 N   0  0  0  0  0  0  0  0  0  0  0  0
   -4.1009    5.2405  -19.0978 C   0  0  0  0  0  0  0  0  0  0  0  0
   -4.9597    5.2333  -20.2077 C   0  0  0  0  0  0  0  0  0  0  0  0
   -4.4368    5.2334  -21.5026 C   0  0  0  0  0  0  0  0  0  0  0  0
   -3.0610    5.2230  -21.6901 C   0  0  0  0  0  0  0  0  0  0  0  0
   -2.5671    5.1936  -22.9350 F   0  0  0  0  0  0  0  0  0  0  0  0
   -2.1949    5.2402  -20.6047 C   0  0  0  0  0  0  0  0  0  0  0  0
   -2.7113    5.2611  -19.3062 C   0  0  0  0  0  0  0  0  0  0  0  0
   -5.9049    4.9809  -17.3328 C   0  0  0  0  0  0  0  0  0  0  0  0
   -6.9559    4.5657  -18.0709 N   0  0  0  0  0  0  0  0  0  0  0  0
  1  2  1  0
  2  3  2  0
  3  4  1  0
  4  5  1  0
  5  6  2  0
  5  7  1  0
  7  8  1  0
  8  9  2  0
  9 10  1  0
 10 11  2  0
 11 12  1  0
 12 13  2  0
 12 14  1  0
 14 15  1  0
 15 16  1  0
 15 17  1  0
  4 18  2  0
 18 19  1  0
 19 20  1  0
 19 21  2  0
 21 22  1  0
 22 23  1  0
 23 24  2  0
 24 25  1  0
 25 26  2  0
 26 27  1  0
 26 28  1  0
 28 29  2  0
 22 30  1  0
 30 31  2  0
 31  2  1  0
 13  8  1  0
 30 18  1  0
 17 11  1  0
 29 23  1  0
M  END
>  <name>  (206) 
P115638

>  <alias>  (206) 
None

>  <smina_score_min>  (206) 
-9.562

>  <exports>  (206) 
['/opt/xchem-fragalysis-2/maxwin/BulkDock/OUTPUTS/openbind_xx01zvns2b_c2_elabs_1LOUTNY.sdf', '/opt/xchem-fragalysis-2/maxwin/BulkDock/OUTPUTS/openbind_xx01zvns2b_c2_elabs_1LSYIIV.sdf']

>  <tags>  (206) 
syndirella_placed,openbind_xx01zvns2b_c2_elabs,openbind_xx01zvns2b_c2_elabs_scored_6.2plus,syndirella_product,openbind_xx01zvns2b_c2_elabs_scored,openbind_xx01zvns2b_c2_elabs_scored_top80percent,BulkDock Fragalysis export

>  <subsites>  (206) 
1 - Z4590/B/203/1

>  <smiles>  (206) 
Cc1cc(C(=O)Nc2ccc3c(c2)CN(C)C3)c2c(C)nn(-c3ccc(F)cc3)c2n1

>  <HIPPO Pose ID>  (206) 
115638

>  <energy_score>  (206) 
-38.221566

>  <inchikey>  (206) 
AQYHQYACJXFTDV-UHFFFAOYSA-N

>  <gnina_score_min>  (206) 
6.409

>  <gnina_score>  (206) 
6.291

>  <ref_mols>  (206) 
Z3556a

>  <HIPPO Compound ID>  (206) 
178639

>  <distance_score>  (206) 
0.507944

>  <rmsd(smina/fragmenstein)>  (206) 
0.342

>  <ref_pdb>  (206) 
Z3556a

>  <inspiration_score>  (206) 
None

$$$$
P115639
     RDKit          3D

 31 35  0  0  0  0  0  0  0  0999 V2000
   -9.3115    3.8845  -18.1686 C   0  0  0  0  0  0  0  0  0  0  0  0
   -8.1596    4.3411  -17.3202 C   0  0  0  0  0  0  0  0  0  0  0  0
   -8.3256    4.5216  -15.9523 C   0  0  0  0  0  0  0  0  0  0  0  0
   -7.2498    4.9955  -15.1998 C   0  0  0  0  0  0  0  0  0  0  0  0
   -7.4495    5.4339  -13.8074 C   0  0  0  0  0  0  0  0  0  0  0  0
   -7.3361    6.5748  -13.5852 O   0  0  0  0  0  0  0  0  0  0  0  0
   -7.8350    4.2649  -12.8733 N   0  0  0  0  0  0  0  0  0  0  0  0
   -8.0616    4.2416  -11.4955 C   0  0  0  0  0  0  0  0  0  0  0  0
   -8.0080    5.4281  -10.7369 C   0  0  0  0  0  0  0  0  0  0  0  0
   -8.2061    5.4087   -9.3525 C   0  0  0  0  0  0  0  0  0  0  0  0
   -8.4565    4.1860   -8.7644 C   0  0  0  0  0  0  0  0  0  0  0  0
   -8.5151    3.0020   -9.4942 C   0  0  0  0  0  0  0  0  0  0  0  0
   -8.3229    3.0153  -10.8689 C   0  0  0  0  0  0  0  0  0  0  0  0
   -8.7445    1.8551   -8.5668 C   0  0  0  0  0  0  0  0  0  0  0  0
   -8.9217    2.5072   -7.2844 N   0  0  0  0  0  0  0  0  0  0  0  0
   -8.6565    3.8588   -7.3479 C   0  0  0  0  0  0  0  0  0  0  0  0
   -8.5647    4.6397   -6.4199 O   0  0  0  0  0  0  0  0  0  0  0  0
   -6.0158    5.2006  -15.8346 C   0  0  0  0  0  0  0  0  0  0  0  0
   -4.6981    5.5840  -15.4899 C   0  0  0  0  0  0  0  0  0  0  0  0
   -4.1669    5.9293  -14.1466 C   0  0  0  0  0  0  0  0  0  0  0  0
   -3.8774    5.5790  -16.5482 N   0  0  0  0  0  0  0  0  0  0  0  0
   -4.6766    5.2652  -17.6109 N   0  0  0  0  0  0  0  0  0  0  0  0
   -4.1402    5.2604  -18.9342 C   0  0  0  0  0  0  0  0  0  0  0  0
   -4.9760    5.2334  -20.0620 C   0  0  0  0  0  0  0  0  0  0  0  0
   -4.4272    5.2125  -21.3463 C   0  0  0  0  0  0  0  0  0  0  0  0
   -3.0480    5.2017  -21.5056 C   0  0  0  0  0  0  0  0  0  0  0  0
   -2.5308    5.1485  -22.7404 F   0  0  0  0  0  0  0  0  0  0  0  0
   -2.2040    5.2407  -20.4029 C   0  0  0  0  0  0  0  0  0  0  0  0
   -2.7468    5.2837  -19.1152 C   0  0  0  0  0  0  0  0  0  0  0  0
   -5.9741    4.9849  -17.2033 C   0  0  0  0  0  0  0  0  0  0  0  0
   -7.0027    4.5686  -17.9703 N   0  0  0  0  0  0  0  0  0  0  0  0
  1  2  1  0
  2  3  2  0
  3  4  1  0
  4  5  1  0
  5  6  2  0
  5  7  1  0
  7  8  1  0
  8  9  2  0
  9 10  1  0
 10 11  2  0
 11 12  1  0
 12 13  2  0
 12 14  1  0
 14 15  1  0
 15 16  1  0
 16 17  2  0
  4 18  2  0
 18 19  1  0
 19 20  1  0
 19 21  2  0
 21 22  1  0
 22 23  1  0
 23 24  2  0
 24 25  1  0
 25 26  2  0
 26 27  1  0
 26 28  1  0
 28 29  2  0
 22 30  1  0
 30 31  2  0
 31  2  1  0
 13  8  1  0
 30 18  1  0
 16 11  1  0
 29 23  1  0
M  END
>  <name>  (207) 
P115639

>  <alias>  (207) 
None

>  <smina_score_min>  (207) 
-9.958

>  <exports>  (207) 
['/opt/xchem-fragalysis-2/maxwin/BulkDock/OUTPUTS/openbind_xx01zvns2b_c2_elabs_1LOUTNY.sdf', '/opt/xchem-fragalysis-2/maxwin/BulkDock/OUTPUTS/openbind_xx01zvns2b_c2_elabs_1LSYIIV.sdf']

>  <tags>  (207) 
syndirella_placed,openbind_xx01zvns2b_c2_elabs,openbind_xx01zvns2b_c2_elabs_scored_6.2plus,syndirella_product,openbind_xx01zvns2b_c2_elabs_scored,openbind_xx01zvns2b_c2_elabs_scored_top80percent,BulkDock Fragalysis export

>  <subsites>  (207) 
1 - Z4590/B/203/1

>  <smiles>  (207) 
Cc1cc(C(=O)Nc2ccc3c(c2)CNC3=O)c2c(C)nn(-c3ccc(F)cc3)c2n1

>  <HIPPO Pose ID>  (207) 
115639

>  <energy_score>  (207) 
-53.068938

>  <inchikey>  (207) 
XVMGFBNWQVDRNQ-UHFFFAOYSA-N

>  <gnina_score_min>  (207) 
6.368

>  <gnina_score>  (207) 
6.249

>  <ref_mols>  (207) 
Z3556a

>  <HIPPO Compound ID>  (207) 
178640

>  <distance_score>  (207) 
0.352414

>  <rmsd(smina/fragmenstein)>  (207) 
0.337

>  <ref_pdb>  (207) 
Z3556a

>  <inspiration_score>  (207) 
None

$$$$
P115640
     RDKit          3D

 31 35  0  0  0  0  0  0  0  0999 V2000
   -9.3348    3.9131  -18.0103 C   0  0  0  0  0  0  0  0  0  0  0  0
   -8.1647    4.3499  -17.1760 C   0  0  0  0  0  0  0  0  0  0  0  0
   -8.2825    4.4978  -15.7958 C   0  0  0  0  0  0  0  0  0  0  0  0
   -7.1720    4.9309  -15.0660 C   0  0  0  0  0  0  0  0  0  0  0  0
   -7.2895    5.3582  -13.6543 C   0  0  0  0  0  0  0  0  0  0  0  0
   -6.9141    6.4406  -13.4185 O   0  0  0  0  0  0  0  0  0  0  0  0
   -7.8190    4.2497  -12.7081 N   0  0  0  0  0  0  0  0  0  0  0  0
   -8.0773    4.2759  -11.3311 C   0  0  0  0  0  0  0  0  0  0  0  0
   -7.8166    5.4576  -10.6050 C   0  0  0  0  0  0  0  0  0  0  0  0
   -7.9548    5.5146   -9.2143 C   0  0  0  0  0  0  0  0  0  0  0  0
   -8.3752    4.3769   -8.5595 C   0  0  0  0  0  0  0  0  0  0  0  0
   -8.6899    3.2245   -9.2803 C   0  0  0  0  0  0  0  0  0  0  0  0
   -8.5379    3.1371  -10.6603 C   0  0  0  0  0  0  0  0  0  0  0  0
   -9.1578    2.2314   -8.2984 C   0  0  0  0  0  0  0  0  0  0  0  0
   -9.5554    1.1091   -8.5150 O   0  0  0  0  0  0  0  0  0  0  0  0
   -9.1092    2.8225   -7.0509 N   0  0  0  0  0  0  0  0  0  0  0  0
   -8.5404    4.1381   -7.0982 C   0  0  0  0  0  0  0  0  0  0  0  0
   -5.9546    5.1291  -15.7476 C   0  0  0  0  0  0  0  0  0  0  0  0
   -4.6111    5.4679  -15.4456 C   0  0  0  0  0  0  0  0  0  0  0  0
   -4.0038    5.7417  -14.1178 C   0  0  0  0  0  0  0  0  0  0  0  0
   -3.8347    5.4866  -16.5366 N   0  0  0  0  0  0  0  0  0  0  0  0
   -4.6810    5.2230  -17.5749 N   0  0  0  0  0  0  0  0  0  0  0  0
   -4.1906    5.2351  -18.9166 C   0  0  0  0  0  0  0  0  0  0  0  0
   -2.8035    5.2534  -19.1451 C   0  0  0  0  0  0  0  0  0  0  0  0
   -2.3038    5.2210  -20.4506 C   0  0  0  0  0  0  0  0  0  0  0  0
   -3.1845    5.1978  -21.5244 C   0  0  0  0  0  0  0  0  0  0  0  0
   -2.7088    5.1544  -22.7762 F   0  0  0  0  0  0  0  0  0  0  0  0
   -4.5574    5.2127  -21.3185 C   0  0  0  0  0  0  0  0  0  0  0  0
   -5.0629    5.2233  -20.0161 C   0  0  0  0  0  0  0  0  0  0  0  0
   -5.9675    4.9587  -17.1231 C   0  0  0  0  0  0  0  0  0  0  0  0
   -7.0304    4.5857  -17.8609 N   0  0  0  0  0  0  0  0  0  0  0  0
  1  2  1  0
  2  3  2  0
  3  4  1  0
  4  5  1  0
  5  6  2  0
  5  7  1  0
  7  8  1  0
  8  9  2  0
  9 10  1  0
 10 11  2  0
 11 12  1  0
 12 13  2  0
 12 14  1  0
 14 15  2  0
 14 16  1  0
 16 17  1  0
  4 18  2  0
 18 19  1  0
 19 20  1  0
 19 21  2  0
 21 22  1  0
 22 23  1  0
 23 24  2  0
 24 25  1  0
 25 26  2  0
 26 27  1  0
 26 28  1  0
 28 29  2  0
 22 30  1  0
 30 31  2  0
 31  2  1  0
 13  8  1  0
 30 18  1  0
 17 11  1  0
 29 23  1  0
M  END
>  <name>  (208) 
P115640

>  <alias>  (208) 
None

>  <smina_score_min>  (208) 
-9.58

>  <exports>  (208) 
['/opt/xchem-fragalysis-2/maxwin/BulkDock/OUTPUTS/openbind_xx01zvns2b_c2_elabs_1LOUTNY.sdf', '/opt/xchem-fragalysis-2/maxwin/BulkDock/OUTPUTS/openbind_xx01zvns2b_c2_elabs_1LSYIIV.sdf']

>  <tags>  (208) 
syndirella_placed,openbind_xx01zvns2b_c2_elabs,openbind_xx01zvns2b_c2_elabs_scored_6.2plus,syndirella_product,openbind_xx01zvns2b_c2_elabs_scored,openbind_xx01zvns2b_c2_elabs_scored_top80percent,BulkDock Fragalysis export

>  <subsites>  (208) 
1 - Z4590/B/203/1

>  <smiles>  (208) 
Cc1cc(C(=O)Nc2ccc3c(c2)C(=O)NC3)c2c(C)nn(-c3ccc(F)cc3)c2n1

>  <HIPPO Pose ID>  (208) 
115640

>  <energy_score>  (208) 
-49.221584

>  <inchikey>  (208) 
UPHVQVGGWKMJMK-UHFFFAOYSA-N

>  <gnina_score_min>  (208) 
6.241

>  <gnina_score>  (208) 
6.226

>  <ref_mols>  (208) 
Z3556a

>  <HIPPO Compound ID>  (208) 
178641

>  <distance_score>  (208) 
0.37241

>  <rmsd(smina/fragmenstein)>  (208) 
0.503

>  <ref_pdb>  (208) 
Z3556a

>  <inspiration_score>  (208) 
None

$$$$
P115669
     RDKit          3D

 31 34  0  0  0  0  0  0  0  0999 V2000
  -10.6678    1.7020   -5.8621 C   0  0  0  0  0  0  0  0  0  0  0  0
  -10.0004    3.0581   -5.9031 C   0  0  0  0  0  0  0  0  0  0  0  0
   -8.9443    3.1947   -6.8933 N   0  0  0  0  0  0  0  0  0  0  0  0
   -8.5291    4.5878   -7.0671 C   0  0  0  0  0  0  0  0  0  0  0  0
   -8.2407    4.7319   -8.5196 C   0  0  0  0  0  0  0  0  0  0  0  0
   -7.7620    5.8439   -9.1755 C   0  0  0  0  0  0  0  0  0  0  0  0
   -7.5652    5.7514  -10.5477 C   0  0  0  0  0  0  0  0  0  0  0  0
   -7.8390    4.5620  -11.2453 C   0  0  0  0  0  0  0  0  0  0  0  0
   -7.5777    4.5132  -12.6126 N   0  0  0  0  0  0  0  0  0  0  0  0
   -6.9877    5.5835  -13.5617 C   0  0  0  0  0  0  0  0  0  0  0  0
   -6.5576    6.6452  -13.3318 O   0  0  0  0  0  0  0  0  0  0  0  0
   -7.0007    5.1657  -14.9712 C   0  0  0  0  0  0  0  0  0  0  0  0
   -8.1863    4.7722  -15.5771 C   0  0  0  0  0  0  0  0  0  0  0  0
   -8.2261    4.5939  -16.9620 C   0  0  0  0  0  0  0  0  0  0  0  0
   -9.5153    4.0270  -17.5355 C   0  0  0  0  0  0  0  0  0  0  0  0
   -9.2940    2.6633  -18.0962 C   0  0  0  0  0  0  0  0  0  0  0  0
  -10.3568    4.7681  -18.5292 C   0  0  0  0  0  0  0  0  0  0  0  0
   -7.1650    4.8156  -17.7759 N   0  0  0  0  0  0  0  0  0  0  0  0
   -6.0171    5.1526  -17.1365 C   0  0  0  0  0  0  0  0  0  0  0  0
   -5.8611    5.3211  -15.7654 C   0  0  0  0  0  0  0  0  0  0  0  0
   -4.4942    5.6373  -15.5753 C   0  0  0  0  0  0  0  0  0  0  0  0
   -3.7614    5.8864  -14.3085 C   0  0  0  0  0  0  0  0  0  0  0  0
   -3.8361    5.6987  -16.7347 N   0  0  0  0  0  0  0  0  0  0  0  0
   -4.7777    5.4321  -17.6790 N   0  0  0  0  0  0  0  0  0  0  0  0
   -4.3874    5.6211  -19.0859 C   0  0  0  0  0  0  0  0  0  0  0  0
   -2.9823    5.0302  -19.3416 C   0  0  0  0  0  0  0  0  0  0  0  0
   -5.3719    4.9962  -20.0833 C   0  0  0  0  0  0  0  0  0  0  0  0
   -4.3363    7.1380  -19.3759 C   0  0  0  0  0  0  0  0  0  0  0  0
   -8.3554    3.4487  -10.5718 C   0  0  0  0  0  0  0  0  0  0  0  0
   -8.5556    3.5572   -9.2001 C   0  0  0  0  0  0  0  0  0  0  0  0
   -9.1505    2.5849   -8.2247 C   0  0  0  0  0  0  0  0  0  0  0  0
  1  2  1  0
  2  3  1  0
  3  4  1  0
  4  5  1  0
  5  6  2  0
  6  7  1  0
  7  8  2  0
  8  9  1  0
  9 10  1  0
 10 11  2  0
 10 12  1  0
 12 13  2  0
 13 14  1  0
 14 15  1  0
 15 16  1  0
 15 17  1  0
 14 18  2  0
 18 19  1  0
 19 20  2  0
 20 21  1  0
 21 22  1  0
 21 23  2  0
 23 24  1  0
 24 25  1  0
 25 26  1  0
 25 27  1  0
 25 28  1  0
  8 29  1  0
 29 30  2  0
 30 31  1  0
 31  3  1  0
 30  5  1  0
 20 12  1  0
 24 19  1  0
M  END
>  <name>  (209) 
P115669

>  <alias>  (209) 
None

>  <smina_score_min>  (209) 
-7.218

>  <exports>  (209) 
['/opt/xchem-fragalysis-2/maxwin/BulkDock/OUTPUTS/openbind_xx01zvns2b_c2_elabs_1LOUTNY.sdf', '/opt/xchem-fragalysis-2/maxwin/BulkDock/OUTPUTS/openbind_xx01zvns2b_c2_elabs_1LSYIIV.sdf']

>  <tags>  (209) 
syndirella_placed,openbind_xx01zvns2b_c2_elabs,openbind_xx01zvns2b_c2_elabs_scored_6.2plus,syndirella_product,openbind_xx01zvns2b_c2_elabs_scored,openbind_xx01zvns2b_c2_elabs_scored_top80percent,BulkDock Fragalysis export

>  <subsites>  (209) 
1 - Z4590/B/203/1

>  <smiles>  (209) 
CCN1Cc2ccc(NC(=O)c3cc(C(C)C)nc4c3c(C)nn4C(C)(C)C)cc2C1

>  <HIPPO Pose ID>  (209) 
115669

>  <energy_score>  (209) 
-28.965818

>  <inchikey>  (209) 
SSYHIZIWHBOJHQ-UHFFFAOYSA-N

>  <gnina_score_min>  (209) 
6.22

>  <gnina_score>  (209) 
6.341

>  <ref_mols>  (209) 
Z3556a

>  <HIPPO Compound ID>  (209) 
178691

>  <distance_score>  (209) 
0.661226

>  <rmsd(smina/fragmenstein)>  (209) 
0.49

>  <ref_pdb>  (209) 
Z3556a

>  <inspiration_score>  (209) 
None

$$$$
P115675
     RDKit          3D

 31 35  0  0  0  0  0  0  0  0999 V2000
  -10.7730    2.8039   -5.9549 C   0  0  0  0  0  0  0  0  0  0  0  0
   -9.3169    2.4281   -6.1501 C   0  0  0  0  0  0  0  0  0  0  0  0
   -8.6520    3.0039   -7.2889 N   0  0  0  0  0  0  0  0  0  0  0  0
   -8.6150    4.4463   -7.4376 C   0  0  0  0  0  0  0  0  0  0  0  0
   -8.3971    4.6420   -8.9014 C   0  0  0  0  0  0  0  0  0  0  0  0
   -8.1298    5.8114   -9.5791 C   0  0  0  0  0  0  0  0  0  0  0  0
   -7.9657    5.7378  -10.9610 C   0  0  0  0  0  0  0  0  0  0  0  0
   -8.0726    4.5122  -11.6444 C   0  0  0  0  0  0  0  0  0  0  0  0
   -7.8651    4.4681  -13.0209 N   0  0  0  0  0  0  0  0  0  0  0  0
   -7.3674    5.5564  -13.9947 C   0  0  0  0  0  0  0  0  0  0  0  0
   -7.1260    6.6835  -13.8107 O   0  0  0  0  0  0  0  0  0  0  0  0
   -7.1919    5.0458  -15.3602 C   0  0  0  0  0  0  0  0  0  0  0  0
   -8.2846    4.5731  -16.0839 C   0  0  0  0  0  0  0  0  0  0  0  0
   -8.1306    4.3468  -17.4452 C   0  0  0  0  0  0  0  0  0  0  0  0
   -9.3062    3.8962  -18.2632 C   0  0  0  0  0  0  0  0  0  0  0  0
   -6.9736    4.5290  -18.1138 N   0  0  0  0  0  0  0  0  0  0  0  0
   -5.9290    4.9462  -17.3659 C   0  0  0  0  0  0  0  0  0  0  0  0
   -5.9558    5.1946  -16.0031 C   0  0  0  0  0  0  0  0  0  0  0  0
   -4.6271    5.5466  -15.6680 C   0  0  0  0  0  0  0  0  0  0  0  0
   -4.0760    5.8981  -14.3346 C   0  0  0  0  0  0  0  0  0  0  0  0
   -3.8133    5.5006  -16.7288 N   0  0  0  0  0  0  0  0  0  0  0  0
   -4.6311    5.2119  -17.7865 N   0  0  0  0  0  0  0  0  0  0  0  0
   -4.1118    5.2374  -19.1142 C   0  0  0  0  0  0  0  0  0  0  0  0
   -4.9584    5.2530  -20.2312 C   0  0  0  0  0  0  0  0  0  0  0  0
   -4.4246    5.2986  -21.5218 C   0  0  0  0  0  0  0  0  0  0  0  0
   -3.0447    5.3091  -21.7090 C   0  0  0  0  0  0  0  0  0  0  0  0
   -2.1956    5.2924  -20.6044 C   0  0  0  0  0  0  0  0  0  0  0  0
   -2.7231    5.2696  -19.3111 C   0  0  0  0  0  0  0  0  0  0  0  0
   -8.3689    3.3375  -10.9489 C   0  0  0  0  0  0  0  0  0  0  0  0
   -8.5247    3.4229   -9.5741 C   0  0  0  0  0  0  0  0  0  0  0  0
   -8.8559    2.3505   -8.5844 C   0  0  0  0  0  0  0  0  0  0  0  0
  1  2  1  0
  2  3  1  0
  3  4  1  0
  4  5  1  0
  5  6  2  0
  6  7  1  0
  7  8  2  0
  8  9  1  0
  9 10  1  0
 10 11  2  0
 10 12  1  0
 12 13  2  0
 13 14  1  0
 14 15  1  0
 14 16  2  0
 16 17  1  0
 17 18  2  0
 18 19  1  0
 19 20  1  0
 19 21  2  0
 21 22  1  0
 22 23  1  0
 23 24  2  0
 24 25  1  0
 25 26  2  0
 26 27  1  0
 27 28  2  0
  8 29  1  0
 29 30  2  0
 30 31  1  0
 31  3  1  0
 30  5  1  0
 18 12  1  0
 28 23  1  0
 22 17  1  0
M  END
>  <name>  (210) 
P115675

>  <alias>  (210) 
None

>  <smina_score_min>  (210) 
-9.134

>  <exports>  (210) 
['/opt/xchem-fragalysis-2/maxwin/BulkDock/OUTPUTS/openbind_xx01zvns2b_c2_elabs_1LOUTNY.sdf', '/opt/xchem-fragalysis-2/maxwin/BulkDock/OUTPUTS/openbind_xx01zvns2b_c2_elabs_1LSYIIV.sdf']

>  <tags>  (210) 
syndirella_placed,openbind_xx01zvns2b_c2_elabs,openbind_xx01zvns2b_c2_elabs_scored_6.2plus,syndirella_product,openbind_xx01zvns2b_c2_elabs_scored,openbind_xx01zvns2b_c2_elabs_scored_top80percent,BulkDock Fragalysis export

>  <subsites>  (210) 
1 - Z4590/B/203/1

>  <smiles>  (210) 
CCN1Cc2ccc(NC(=O)c3cc(C)nc4c3c(C)nn4-c3ccccc3)cc2C1

>  <HIPPO Pose ID>  (210) 
115675

>  <energy_score>  (210) 
-25.284444

>  <inchikey>  (210) 
JKSKAPSYUWCEOK-UHFFFAOYSA-N

>  <gnina_score_min>  (210) 
6.367

>  <gnina_score>  (210) 
6.3

>  <ref_mols>  (210) 
Z3556a

>  <HIPPO Compound ID>  (210) 
178698

>  <distance_score>  (210) 
0.533221

>  <rmsd(smina/fragmenstein)>  (210) 
0.365

>  <ref_pdb>  (210) 
Z3556a

>  <inspiration_score>  (210) 
None

$$$$
P115676
     RDKit          3D

 31 35  0  0  0  0  0  0  0  0999 V2000
   -9.3135    3.9066  -18.1087 C   0  0  0  0  0  0  0  0  0  0  0  0
   -8.1352    4.3459  -17.2875 C   0  0  0  0  0  0  0  0  0  0  0  0
   -8.2599    4.5160  -15.9119 C   0  0  0  0  0  0  0  0  0  0  0  0
   -7.1518    4.9586  -15.1873 C   0  0  0  0  0  0  0  0  0  0  0  0
   -7.2882    5.4269  -13.7949 C   0  0  0  0  0  0  0  0  0  0  0  0
   -6.9815    6.5364  -13.5913 O   0  0  0  0  0  0  0  0  0  0  0  0
   -7.8356    4.3447  -12.8330 N   0  0  0  0  0  0  0  0  0  0  0  0
   -8.0239    4.3724  -11.4472 C   0  0  0  0  0  0  0  0  0  0  0  0
   -7.7945    5.5738  -10.7431 C   0  0  0  0  0  0  0  0  0  0  0  0
   -7.9672    5.6616   -9.3586 C   0  0  0  0  0  0  0  0  0  0  0  0
   -8.3851    4.5323   -8.6895 C   0  0  0  0  0  0  0  0  0  0  0  0
   -8.6207    3.3458   -9.3864 C   0  0  0  0  0  0  0  0  0  0  0  0
   -8.4441    3.2308  -10.7596 C   0  0  0  0  0  0  0  0  0  0  0  0
   -9.1581    2.3759   -8.4203 C   0  0  0  0  0  0  0  0  0  0  0  0
   -9.5682    1.2689   -8.6910 O   0  0  0  0  0  0  0  0  0  0  0  0
   -9.1974    3.0112   -7.1936 N   0  0  0  0  0  0  0  0  0  0  0  0
   -9.8776    2.4848   -6.0401 C   0  0  0  0  0  0  0  0  0  0  0  0
   -8.6992    4.3613   -7.2432 C   0  0  0  0  0  0  0  0  0  0  0  0
   -5.9316    5.1415  -15.8606 C   0  0  0  0  0  0  0  0  0  0  0  0
   -4.5946    5.4880  -15.5482 C   0  0  0  0  0  0  0  0  0  0  0  0
   -4.0058    5.7861  -14.2179 C   0  0  0  0  0  0  0  0  0  0  0  0
   -3.8083    5.4946  -16.6306 N   0  0  0  0  0  0  0  0  0  0  0  0
   -4.6448    5.2163  -17.6760 N   0  0  0  0  0  0  0  0  0  0  0  0
   -4.1461    5.2492  -19.0128 C   0  0  0  0  0  0  0  0  0  0  0  0
   -5.0076    5.2636  -20.1184 C   0  0  0  0  0  0  0  0  0  0  0  0
   -4.4915    5.3083  -21.4168 C   0  0  0  0  0  0  0  0  0  0  0  0
   -3.1143    5.3195  -21.6232 C   0  0  0  0  0  0  0  0  0  0  0  0
   -2.2500    5.3026  -20.5305 C   0  0  0  0  0  0  0  0  0  0  0  0
   -2.7601    5.2809  -19.2299 C   0  0  0  0  0  0  0  0  0  0  0  0
   -5.9353    4.9493  -17.2336 C   0  0  0  0  0  0  0  0  0  0  0  0
   -6.9966    4.5667  -17.9735 N   0  0  0  0  0  0  0  0  0  0  0  0
  1  2  1  0
  2  3  2  0
  3  4  1  0
  4  5  1  0
  5  6  2  0
  5  7  1  0
  7  8  1  0
  8  9  2  0
  9 10  1  0
 10 11  2  0
 11 12  1  0
 12 13  2  0
 12 14  1  0
 14 15  2  0
 14 16  1  0
 16 17  1  0
 16 18  1  0
  4 19  2  0
 19 20  1  0
 20 21  1  0
 20 22  2  0
 22 23  1  0
 23 24  1  0
 24 25  2  0
 25 26  1  0
 26 27  2  0
 27 28  1  0
 28 29  2  0
 23 30  1  0
 30 31  2  0
 31  2  1  0
 13  8  1  0
 30 19  1  0
 18 11  1  0
 29 24  1  0
M  END
>  <name>  (211) 
P115676

>  <alias>  (211) 
None

>  <smina_score_min>  (211) 
-9.553

>  <exports>  (211) 
['/opt/xchem-fragalysis-2/maxwin/BulkDock/OUTPUTS/openbind_xx01zvns2b_c2_elabs_1LOUTNY.sdf', '/opt/xchem-fragalysis-2/maxwin/BulkDock/OUTPUTS/openbind_xx01zvns2b_c2_elabs_1LSYIIV.sdf']

>  <tags>  (211) 
syndirella_placed,openbind_xx01zvns2b_c2_elabs,openbind_xx01zvns2b_c2_elabs_scored_6.2plus,syndirella_product,openbind_xx01zvns2b_c2_elabs_scored,openbind_xx01zvns2b_c2_elabs_scored_top80percent,BulkDock Fragalysis export

>  <subsites>  (211) 
1 - Z4590/B/203/1

>  <smiles>  (211) 
Cc1cc(C(=O)Nc2ccc3c(c2)C(=O)N(C)C3)c2c(C)nn(-c3ccccc3)c2n1

>  <HIPPO Pose ID>  (211) 
115676

>  <energy_score>  (211) 
-41.141706

>  <inchikey>  (211) 
NVXNEBURMLJUBW-UHFFFAOYSA-N

>  <gnina_score_min>  (211) 
6.259

>  <gnina_score>  (211) 
6.238

>  <ref_mols>  (211) 
Z3556a

>  <HIPPO Compound ID>  (211) 
178699

>  <distance_score>  (211) 
0.450954

>  <rmsd(smina/fragmenstein)>  (211) 
0.557

>  <ref_pdb>  (211) 
Z3556a

>  <inspiration_score>  (211) 
None

$$$$
P115677
     RDKit          3D

 31 35  0  0  0  0  0  0  0  0999 V2000
   -9.2891    3.8762  -18.0670 C   0  0  0  0  0  0  0  0  0  0  0  0
   -8.1167    4.3555  -17.2600 C   0  0  0  0  0  0  0  0  0  0  0  0
   -8.2332    4.5374  -15.8860 C   0  0  0  0  0  0  0  0  0  0  0  0
   -7.1367    5.0372  -15.1816 C   0  0  0  0  0  0  0  0  0  0  0  0
   -7.2657    5.4433  -13.7703 C   0  0  0  0  0  0  0  0  0  0  0  0
   -7.0780    6.5790  -13.5166 O   0  0  0  0  0  0  0  0  0  0  0  0
   -7.5783    4.2744  -12.8597 N   0  0  0  0  0  0  0  0  0  0  0  0
   -6.2617    3.5614  -12.3734 C   0  0  0  0  0  0  0  0  0  0  0  0
   -7.8397    4.2291  -11.3918 C   0  0  0  0  0  0  0  0  0  0  0  0
   -7.8025    5.4438  -10.6639 C   0  0  0  0  0  0  0  0  0  0  0  0
   -8.0903    5.4863   -9.2966 C   0  0  0  0  0  0  0  0  0  0  0  0
   -8.4363    4.3076   -8.6650 C   0  0  0  0  0  0  0  0  0  0  0  0
   -8.5518    3.1184   -9.3765 C   0  0  0  0  0  0  0  0  0  0  0  0
   -8.3250    3.0711  -10.7458 C   0  0  0  0  0  0  0  0  0  0  0  0
   -8.9177    2.0114   -8.4393 C   0  0  0  0  0  0  0  0  0  0  0  0
   -8.9763    2.6261   -7.0943 N   0  0  0  0  0  0  0  0  0  0  0  0
  -10.1673    2.2665   -6.3512 C   0  0  0  0  0  0  0  0  0  0  0  0
   -8.7611    4.0725   -7.2259 C   0  0  0  0  0  0  0  0  0  0  0  0
   -5.9311    5.2633  -15.8678 C   0  0  0  0  0  0  0  0  0  0  0  0
   -4.6110    5.6918  -15.5829 C   0  0  0  0  0  0  0  0  0  0  0  0
   -4.0323    6.1254  -14.2862 C   0  0  0  0  0  0  0  0  0  0  0  0
   -3.8255    5.6588  -16.6654 N   0  0  0  0  0  0  0  0  0  0  0  0
   -4.6547    5.3060  -17.6925 N   0  0  0  0  0  0  0  0  0  0  0  0
   -4.1591    5.2928  -19.0303 C   0  0  0  0  0  0  0  0  0  0  0  0
   -2.7741    5.3367  -19.2524 C   0  0  0  0  0  0  0  0  0  0  0  0
   -2.2674    5.3216  -20.5544 C   0  0  0  0  0  0  0  0  0  0  0  0
   -3.1348    5.2920  -21.6444 C   0  0  0  0  0  0  0  0  0  0  0  0
   -4.5112    5.2679  -21.4329 C   0  0  0  0  0  0  0  0  0  0  0  0
   -5.0234    5.2559  -20.1325 C   0  0  0  0  0  0  0  0  0  0  0  0
   -5.9358    5.0261  -17.2344 C   0  0  0  0  0  0  0  0  0  0  0  0
   -6.9887    4.5949  -17.9581 N   0  0  0  0  0  0  0  0  0  0  0  0
  1  2  1  0
  2  3  2  0
  3  4  1  0
  4  5  1  0
  5  6  2  0
  5  7  1  0
  7  8  1  0
  7  9  1  0
  9 10  2  0
 10 11  1  0
 11 12  2  0
 12 13  1  0
 13 14  2  0
 13 15  1  0
 15 16  1  0
 16 17  1  0
 16 18  1  0
  4 19  2  0
 19 20  1  0
 20 21  1  0
 20 22  2  0
 22 23  1  0
 23 24  1  0
 24 25  2  0
 25 26  1  0
 26 27  2  0
 27 28  1  0
 28 29  2  0
 23 30  1  0
 30 31  2  0
 31  2  1  0
 14  9  1  0
 30 19  1  0
 18 12  1  0
 29 24  1  0
M  END
>  <name>  (212) 
P115677

>  <alias>  (212) 
None

>  <smina_score_min>  (212) 
-9.687

>  <exports>  (212) 
['/opt/xchem-fragalysis-2/maxwin/BulkDock/OUTPUTS/openbind_xx01zvns2b_c2_elabs_1LOUTNY.sdf', '/opt/xchem-fragalysis-2/maxwin/BulkDock/OUTPUTS/openbind_xx01zvns2b_c2_elabs_1LSYIIV.sdf']

>  <tags>  (212) 
syndirella_placed,openbind_xx01zvns2b_c2_elabs,openbind_xx01zvns2b_c2_elabs_scored_6.2plus,syndirella_product,openbind_xx01zvns2b_c2_elabs_scored,openbind_xx01zvns2b_c2_elabs_scored_top80percent,BulkDock Fragalysis export

>  <subsites>  (212) 
1 - Z4590/B/203/1

>  <smiles>  (212) 
Cc1cc(C(=O)N(C)c2ccc3c(c2)CN(C)C3)c2c(C)nn(-c3ccccc3)c2n1

>  <HIPPO Pose ID>  (212) 
115677

>  <energy_score>  (212) 
-3.015048

>  <inchikey>  (212) 
JRVWUNXPRBIFJH-UHFFFAOYSA-N

>  <gnina_score_min>  (212) 
6.385

>  <gnina_score>  (212) 
6.296

>  <ref_mols>  (212) 
Z3556a

>  <HIPPO Compound ID>  (212) 
178700

>  <distance_score>  (212) 
0.410079

>  <rmsd(smina/fragmenstein)>  (212) 
0.326

>  <ref_pdb>  (212) 
Z3556a

>  <inspiration_score>  (212) 
None

$$$$
P115678
     RDKit          3D

 31 35  0  0  0  0  0  0  0  0999 V2000
   -9.3335    3.8962  -18.0566 C   0  0  0  0  0  0  0  0  0  0  0  0
   -8.1682    4.3300  -17.2142 C   0  0  0  0  0  0  0  0  0  0  0  0
   -8.3032    4.4800  -15.8360 C   0  0  0  0  0  0  0  0  0  0  0  0
   -7.2044    4.9196  -15.0942 C   0  0  0  0  0  0  0  0  0  0  0  0
   -7.3509    5.3814  -13.6970 C   0  0  0  0  0  0  0  0  0  0  0  0
   -6.9960    6.4765  -13.4907 O   0  0  0  0  0  0  0  0  0  0  0  0
   -7.9477    4.3192  -12.7351 N   0  0  0  0  0  0  0  0  0  0  0  0
   -8.1373    4.3527  -11.3376 C   0  0  0  0  0  0  0  0  0  0  0  0
   -8.5615    3.1903  -10.6710 C   0  0  0  0  0  0  0  0  0  0  0  0
   -8.6905    3.2416   -9.2842 C   0  0  0  0  0  0  0  0  0  0  0  0
   -8.3816    4.3801   -8.5414 C   0  0  0  0  0  0  0  0  0  0  0  0
   -7.9967    5.5373   -9.1796 C   0  0  0  0  0  0  0  0  0  0  0  0
   -7.8919    5.5180  -10.5728 C   0  0  0  0  0  0  0  0  0  0  0  0
   -7.5395    6.6747  -11.1451 F   0  0  0  0  0  0  0  0  0  0  0  0
   -8.5276    4.1119   -7.0838 C   0  0  0  0  0  0  0  0  0  0  0  0
   -9.0862    2.7923   -7.0596 N   0  0  0  0  0  0  0  0  0  0  0  0
   -9.1441    2.2264   -8.3178 C   0  0  0  0  0  0  0  0  0  0  0  0
   -9.5445    1.1101   -8.5559 O   0  0  0  0  0  0  0  0  0  0  0  0
   -5.9798    5.1190  -15.7616 C   0  0  0  0  0  0  0  0  0  0  0  0
   -4.6448    5.4718  -15.4412 C   0  0  0  0  0  0  0  0  0  0  0  0
   -4.0616    5.7609  -14.1060 C   0  0  0  0  0  0  0  0  0  0  0  0
   -3.8529    5.4922  -16.5201 N   0  0  0  0  0  0  0  0  0  0  0  0
   -4.6817    5.2182  -17.5712 N   0  0  0  0  0  0  0  0  0  0  0  0
   -4.1723    5.2477  -18.9048 C   0  0  0  0  0  0  0  0  0  0  0  0
   -2.7844    5.2860  -19.1100 C   0  0  0  0  0  0  0  0  0  0  0  0
   -2.2622    5.2971  -20.4060 C   0  0  0  0  0  0  0  0  0  0  0  0
   -3.1165    5.2975  -21.5068 C   0  0  0  0  0  0  0  0  0  0  0  0
   -4.4955    5.2800  -21.3129 C   0  0  0  0  0  0  0  0  0  0  0  0
   -5.0235    5.2460  -20.0186 C   0  0  0  0  0  0  0  0  0  0  0  0
   -5.9733    4.9441  -17.1372 C   0  0  0  0  0  0  0  0  0  0  0  0
   -7.0266    4.5657  -17.8882 N   0  0  0  0  0  0  0  0  0  0  0  0
  1  2  1  0
  2  3  2  0
  3  4  1  0
  4  5  1  0
  5  6  2  0
  5  7  1  0
  7  8  1  0
  8  9  2  0
  9 10  1  0
 10 11  2  0
 11 12  1  0
 12 13  2  0
 13 14  1  0
 11 15  1  0
 15 16  1  0
 16 17  1  0
 17 18  2  0
  4 19  2  0
 19 20  1  0
 20 21  1  0
 20 22  2  0
 22 23  1  0
 23 24  1  0
 24 25  2  0
 25 26  1  0
 26 27  2  0
 27 28  1  0
 28 29  2  0
 23 30  1  0
 30 31  2  0
 31  2  1  0
 13  8  1  0
 30 19  1  0
 17 10  1  0
 29 24  1  0
M  END
>  <name>  (213) 
P115678

>  <alias>  (213) 
None

>  <smina_score_min>  (213) 
-9.532

>  <exports>  (213) 
['/opt/xchem-fragalysis-2/maxwin/BulkDock/OUTPUTS/openbind_xx01zvns2b_c2_elabs_1LOUTNY.sdf', '/opt/xchem-fragalysis-2/maxwin/BulkDock/OUTPUTS/openbind_xx01zvns2b_c2_elabs_1LSYIIV.sdf']

>  <tags>  (213) 
syndirella_placed,openbind_xx01zvns2b_c2_elabs,openbind_xx01zvns2b_c2_elabs_scored_6.2plus,syndirella_product,openbind_xx01zvns2b_c2_elabs_scored,openbind_xx01zvns2b_c2_elabs_scored_top80percent,BulkDock Fragalysis export

>  <subsites>  (213) 
1 - Z4590/B/203/1

>  <smiles>  (213) 
Cc1cc(C(=O)Nc2cc3c(cc2F)CNC3=O)c2c(C)nn(-c3ccccc3)c2n1

>  <HIPPO Pose ID>  (213) 
115678

>  <energy_score>  (213) 
-43.233384

>  <inchikey>  (213) 
KRELPHITLXEMMS-UHFFFAOYSA-N

>  <gnina_score_min>  (213) 
6.331

>  <gnina_score>  (213) 
6.379

>  <ref_mols>  (213) 
Z3556a

>  <HIPPO Compound ID>  (213) 
178703

>  <distance_score>  (213) 
0.368416

>  <rmsd(smina/fragmenstein)>  (213) 
0.854

>  <ref_pdb>  (213) 
Z3556a

>  <inspiration_score>  (213) 
None

$$$$
P115679
     RDKit          3D

 31 35  0  0  0  0  0  0  0  0999 V2000
   -9.2874    3.9071  -18.1758 C   0  0  0  0  0  0  0  0  0  0  0  0
   -8.1151    4.3601  -17.3537 C   0  0  0  0  0  0  0  0  0  0  0  0
   -8.2564    4.5658  -15.9874 C   0  0  0  0  0  0  0  0  0  0  0  0
   -7.1577    5.0326  -15.2640 C   0  0  0  0  0  0  0  0  0  0  0  0
   -7.3186    5.4878  -13.8747 C   0  0  0  0  0  0  0  0  0  0  0  0
   -7.1252    6.6169  -13.6507 O   0  0  0  0  0  0  0  0  0  0  0  0
   -7.7668    4.3446  -12.9395 N   0  0  0  0  0  0  0  0  0  0  0  0
   -7.9725    4.3306  -11.5604 C   0  0  0  0  0  0  0  0  0  0  0  0
   -7.9383    5.5329  -10.8252 C   0  0  0  0  0  0  0  0  0  0  0  0
   -8.1891    5.5447   -9.4520 C   0  0  0  0  0  0  0  0  0  0  0  0
   -8.4653    4.3352   -8.8512 C   0  0  0  0  0  0  0  0  0  0  0  0
   -8.4905    3.1335   -9.5568 C   0  0  0  0  0  0  0  0  0  0  0  0
   -8.2417    3.1142  -10.9208 C   0  0  0  0  0  0  0  0  0  0  0  0
   -8.8602    2.0196   -8.6356 C   0  0  0  0  0  0  0  0  0  0  0  0
   -9.1233    2.7202   -7.3900 N   0  0  0  0  0  0  0  0  0  0  0  0
   -9.8678    2.1017   -6.3274 C   0  0  0  0  0  0  0  0  0  0  0  0
   -8.8879    4.0757   -7.4704 C   0  0  0  0  0  0  0  0  0  0  0  0
   -9.0567    4.9375   -6.6271 O   0  0  0  0  0  0  0  0  0  0  0  0
   -5.9315    5.2080  -15.9194 C   0  0  0  0  0  0  0  0  0  0  0  0
   -4.6038    5.5740  -15.5976 C   0  0  0  0  0  0  0  0  0  0  0  0
   -4.0436    5.9258  -14.2682 C   0  0  0  0  0  0  0  0  0  0  0  0
   -3.8009    5.5469  -16.6676 N   0  0  0  0  0  0  0  0  0  0  0  0
   -4.6240    5.2425  -17.7184 N   0  0  0  0  0  0  0  0  0  0  0  0
   -4.1131    5.2507  -19.0500 C   0  0  0  0  0  0  0  0  0  0  0  0
   -4.9648    5.2160  -20.1624 C   0  0  0  0  0  0  0  0  0  0  0  0
   -4.4390    5.2311  -21.4568 C   0  0  0  0  0  0  0  0  0  0  0  0
   -3.0611    5.2648  -21.6531 C   0  0  0  0  0  0  0  0  0  0  0  0
   -2.2060    5.3000  -20.5533 C   0  0  0  0  0  0  0  0  0  0  0  0
   -2.7263    5.3054  -19.2565 C   0  0  0  0  0  0  0  0  0  0  0  0
   -5.9165    4.9734  -17.2849 C   0  0  0  0  0  0  0  0  0  0  0  0
   -6.9652    4.5586  -18.0250 N   0  0  0  0  0  0  0  0  0  0  0  0
  1  2  1  0
  2  3  2  0
  3  4  1  0
  4  5  1  0
  5  6  2  0
  5  7  1  0
  7  8  1  0
  8  9  2  0
  9 10  1  0
 10 11  2  0
 11 12  1  0
 12 13  2  0
 12 14  1  0
 14 15  1  0
 15 16  1  0
 15 17  1  0
 17 18  2  0
  4 19  2  0
 19 20  1  0
 20 21  1  0
 20 22  2  0
 22 23  1  0
 23 24  1  0
 24 25  2  0
 25 26  1  0
 26 27  2  0
 27 28  1  0
 28 29  2  0
 23 30  1  0
 30 31  2  0
 31  2  1  0
 13  8  1  0
 30 19  1  0
 17 11  1  0
 29 24  1  0
M  END
>  <name>  (214) 
P115679

>  <alias>  (214) 
None

>  <smina_score_min>  (214) 
-9.785

>  <exports>  (214) 
['/opt/xchem-fragalysis-2/maxwin/BulkDock/OUTPUTS/openbind_xx01zvns2b_c2_elabs_1LOUTNY.sdf', '/opt/xchem-fragalysis-2/maxwin/BulkDock/OUTPUTS/openbind_xx01zvns2b_c2_elabs_1LSYIIV.sdf']

>  <tags>  (214) 
syndirella_placed,openbind_xx01zvns2b_c2_elabs,openbind_xx01zvns2b_c2_elabs_scored_6.2plus,syndirella_product,openbind_xx01zvns2b_c2_elabs_scored,openbind_xx01zvns2b_c2_elabs_scored_top80percent,BulkDock Fragalysis export

>  <subsites>  (214) 
1 - Z4590/B/203/1

>  <smiles>  (214) 
Cc1cc(C(=O)Nc2ccc3c(c2)CN(C)C3=O)c2c(C)nn(-c3ccccc3)c2n1

>  <HIPPO Pose ID>  (214) 
115679

>  <energy_score>  (214) 
-20.709412

>  <inchikey>  (214) 
CIGHUNAPAXKSSL-UHFFFAOYSA-N

>  <gnina_score_min>  (214) 
6.302

>  <gnina_score>  (214) 
6.224

>  <ref_mols>  (214) 
Z3556a

>  <HIPPO Compound ID>  (214) 
178704

>  <distance_score>  (214) 
0.42454

>  <rmsd(smina/fragmenstein)>  (214) 
0.331

>  <ref_pdb>  (214) 
Z3556a

>  <inspiration_score>  (214) 
None

$$$$
P115685
     RDKit          3D

 31 34  0  0  0  0  0  0  0  0999 V2000
   -9.2797    3.8579  -18.1591 C   0  0  0  0  0  0  0  0  0  0  0  0
   -8.1365    4.3421  -17.3137 C   0  0  0  0  0  0  0  0  0  0  0  0
   -8.3057    4.4902  -15.9359 C   0  0  0  0  0  0  0  0  0  0  0  0
   -7.2586    5.0200  -15.1752 C   0  0  0  0  0  0  0  0  0  0  0  0
   -7.4717    5.4487  -13.7789 C   0  0  0  0  0  0  0  0  0  0  0  0
   -7.3104    6.5795  -13.5372 O   0  0  0  0  0  0  0  0  0  0  0  0
   -7.8944    4.2793  -12.8624 N   0  0  0  0  0  0  0  0  0  0  0  0
   -8.1081    4.2396  -11.4824 C   0  0  0  0  0  0  0  0  0  0  0  0
   -8.0748    5.4253  -10.7203 C   0  0  0  0  0  0  0  0  0  0  0  0
   -8.2580    5.3985   -9.3345 C   0  0  0  0  0  0  0  0  0  0  0  0
   -8.4824    4.1699   -8.7492 C   0  0  0  0  0  0  0  0  0  0  0  0
   -8.5252    2.9871   -9.4827 C   0  0  0  0  0  0  0  0  0  0  0  0
   -8.3383    3.0066  -10.8582 C   0  0  0  0  0  0  0  0  0  0  0  0
   -8.7393    1.8350   -8.5581 C   0  0  0  0  0  0  0  0  0  0  0  0
   -8.9215    2.4810   -7.2732 N   0  0  0  0  0  0  0  0  0  0  0  0
   -8.6742    3.8360   -7.3333 C   0  0  0  0  0  0  0  0  0  0  0  0
   -8.5918    4.6153   -6.4029 O   0  0  0  0  0  0  0  0  0  0  0  0
   -6.0534    5.3265  -15.8222 C   0  0  0  0  0  0  0  0  0  0  0  0
   -4.7601    5.8266  -15.5025 C   0  0  0  0  0  0  0  0  0  0  0  0
   -4.2195    6.1898  -14.1686 C   0  0  0  0  0  0  0  0  0  0  0  0
   -3.9846    5.9505  -16.5931 N   0  0  0  0  0  0  0  0  0  0  0  0
   -4.8138    5.6127  -17.6071 N   0  0  0  0  0  0  0  0  0  0  0  0
   -4.3866    5.7394  -18.9828 C   0  0  0  0  0  0  0  0  0  0  0  0
   -5.0388    6.9272  -19.6997 C   0  0  0  0  0  0  0  0  0  0  0  0
   -5.7046    7.7379  -19.1805 O   0  0  0  0  0  0  0  0  0  0  0  0
   -4.5652    6.8059  -21.1851 N   0  0  0  0  0  0  0  0  0  0  0  0
   -4.8954    7.6051  -22.3424 C   0  0  0  0  0  0  0  0  0  0  0  0
   -4.9387    6.7474  -23.5985 C   0  0  0  0  0  0  0  0  0  0  0  0
   -3.9045    8.7537  -22.4866 C   0  0  0  0  0  0  0  0  0  0  0  0
   -6.0235    5.1370  -17.1928 C   0  0  0  0  0  0  0  0  0  0  0  0
   -6.9994    4.6489  -17.9781 N   0  0  0  0  0  0  0  0  0  0  0  0
  1  2  1  0
  2  3  2  0
  3  4  1  0
  4  5  1  0
  5  6  2  0
  5  7  1  0
  7  8  1  0
  8  9  2  0
  9 10  1  0
 10 11  2  0
 11 12  1  0
 12 13  2  0
 12 14  1  0
 14 15  1  0
 15 16  1  0
 16 17  2  0
  4 18  2  0
 18 19  1  0
 19 20  1  0
 19 21  2  0
 21 22  1  0
 22 23  1  0
 23 24  1  0
 24 25  2  0
 24 26  1  0
 26 27  1  0
 27 28  1  0
 27 29  1  0
 22 30  1  0
 30 31  2  0
 31  2  1  0
 13  8  1  0
 30 18  1  0
 16 11  1  0
M  END
>  <name>  (215) 
P115685

>  <alias>  (215) 
None

>  <smina_score_min>  (215) 
-8.611

>  <exports>  (215) 
['/opt/xchem-fragalysis-2/maxwin/BulkDock/OUTPUTS/openbind_xx01zvns2b_c2_elabs_1LOUTNY.sdf', '/opt/xchem-fragalysis-2/maxwin/BulkDock/OUTPUTS/openbind_xx01zvns2b_c2_elabs_1LSYIIV.sdf']

>  <tags>  (215) 
syndirella_placed,openbind_xx01zvns2b_c2_elabs,openbind_xx01zvns2b_c2_elabs_scored_6.2plus,syndirella_product,openbind_xx01zvns2b_c2_elabs_scored,openbind_xx01zvns2b_c2_elabs_scored_top80percent,BulkDock Fragalysis export

>  <subsites>  (215) 
1 - Z4590/B/203/1

>  <smiles>  (215) 
Cc1cc(C(=O)Nc2ccc3c(c2)CNC3=O)c2c(C)nn(CC(=O)NC(C)C)c2n1

>  <HIPPO Pose ID>  (215) 
115685

>  <energy_score>  (215) 
-15.130771

>  <inchikey>  (215) 
KDAPTSDDALDQCQ-UHFFFAOYSA-N

>  <gnina_score_min>  (215) 
6.24

>  <gnina_score>  (215) 
6.246

>  <ref_mols>  (215) 
Z3556a

>  <HIPPO Compound ID>  (215) 
178718

>  <distance_score>  (215) 
0.41396

>  <rmsd(smina/fragmenstein)>  (215) 
0.434

>  <ref_pdb>  (215) 
Z3556a

>  <inspiration_score>  (215) 
None

$$$$
P115711
     RDKit          3D

 31 35  0  0  0  0  0  0  0  0999 V2000
   -9.5709    4.7630   -4.6102 C   0  0  0  0  0  0  0  0  0  0  0  0
   -8.8677    3.4365   -4.8051 C   0  0  0  0  0  0  0  0  0  0  0  0
   -9.2260    2.6449   -6.0839 C   0  0  0  0  0  0  0  0  0  0  0  0
   -9.2311    3.3743   -7.3411 N   0  0  0  0  0  0  0  0  0  0  0  0
   -8.3280    4.5144   -7.4281 C   0  0  0  0  0  0  0  0  0  0  0  0
   -8.1320    4.6959   -8.8863 C   0  0  0  0  0  0  0  0  0  0  0  0
   -7.6969    5.8267   -9.5342 C   0  0  0  0  0  0  0  0  0  0  0  0
   -7.5723    5.7563  -10.9099 C   0  0  0  0  0  0  0  0  0  0  0  0
   -7.8521    4.5667  -11.6079 C   0  0  0  0  0  0  0  0  0  0  0  0
   -7.6350    4.5524  -12.9813 N   0  0  0  0  0  0  0  0  0  0  0  0
   -7.0313    5.6267  -13.9128 C   0  0  0  0  0  0  0  0  0  0  0  0
   -6.6925    6.7211  -13.6865 O   0  0  0  0  0  0  0  0  0  0  0  0
   -6.9055    5.1647  -15.2925 C   0  0  0  0  0  0  0  0  0  0  0  0
   -8.0460    4.8400  -16.0174 C   0  0  0  0  0  0  0  0  0  0  0  0
   -7.9323    4.6755  -17.3957 C   0  0  0  0  0  0  0  0  0  0  0  0
   -9.1749    4.3602  -18.1847 C   0  0  0  0  0  0  0  0  0  0  0  0
   -9.4102    2.8827  -18.1590 C   0  0  0  0  0  0  0  0  0  0  0  0
   -6.7756    4.7826  -18.0879 N   0  0  0  0  0  0  0  0  0  0  0  0
   -5.7022    5.0507  -17.3224 C   0  0  0  0  0  0  0  0  0  0  0  0
   -5.6762    5.2440  -15.9520 C   0  0  0  0  0  0  0  0  0  0  0  0
   -4.3147    5.4878  -15.6606 C   0  0  0  0  0  0  0  0  0  0  0  0
   -3.7418    5.7162  -14.2315 C   0  0  0  0  0  0  0  0  0  0  0  0
   -3.5293    7.1306  -13.7565 C   0  0  0  0  0  0  0  0  0  0  0  0
   -2.3457    6.2574  -14.0503 C   0  0  0  0  0  0  0  0  0  0  0  0
   -3.5358    5.4601  -16.7483 N   0  0  0  0  0  0  0  0  0  0  0  0
   -4.4140    5.2165  -17.7471 N   0  0  0  0  0  0  0  0  0  0  0  0
   -3.9548    5.1770  -19.1175 C   0  0  0  0  0  0  0  0  0  0  0  0
   -3.7892    6.5667  -19.7069 C   0  0  0  0  0  0  0  0  0  0  0  0
   -8.3143    3.4287  -10.9336 C   0  0  0  0  0  0  0  0  0  0  0  0
   -8.4677    3.5199   -9.5591 C   0  0  0  0  0  0  0  0  0  0  0  0
   -8.9599    2.5296   -8.5398 C   0  0  0  0  0  0  0  0  0  0  0  0
  1  2  1  0
  2  3  1  0
  3  4  1  0
  4  5  1  0
  5  6  1  0
  6  7  2  0
  7  8  1  0
  8  9  2  0
  9 10  1  0
 10 11  1  0
 11 12  2  0
 11 13  1  0
 13 14  2  0
 14 15  1  0
 15 16  1  0
 16 17  1  0
 15 18  2  0
 18 19  1  0
 19 20  2  0
 20 21  1  0
 21 22  1  0
 22 23  1  0
 23 24  1  0
 21 25  2  0
 25 26  1  0
 26 27  1  0
 27 28  1  0
  9 29  1  0
 29 30  2  0
 30 31  1  0
 31  4  1  0
 30  6  1  0
 20 13  1  0
 24 22  1  0
 26 19  1  0
M  END
>  <name>  (216) 
P115711

>  <alias>  (216) 
None

>  <smina_score_min>  (216) 
-7.022

>  <exports>  (216) 
['/opt/xchem-fragalysis-2/maxwin/BulkDock/OUTPUTS/openbind_xx01zvns2b_c2_elabs_1LOUTNY.sdf', '/opt/xchem-fragalysis-2/maxwin/BulkDock/OUTPUTS/openbind_xx01zvns2b_c2_elabs_1LSYIIV.sdf']

>  <tags>  (216) 
syndirella_placed,openbind_xx01zvns2b_c2_elabs,openbind_xx01zvns2b_c2_elabs_scored_6.2plus,syndirella_product,openbind_xx01zvns2b_c2_elabs_scored,openbind_xx01zvns2b_c2_elabs_scored_top80percent,BulkDock Fragalysis export

>  <subsites>  (216) 
1 - Z4590/B/203/1

>  <smiles>  (216) 
CCCN1Cc2ccc(NC(=O)c3cc(CC)nc4c3c(C3CC3)nn4CC)cc2C1

>  <HIPPO Pose ID>  (216) 
115711

>  <energy_score>  (216) 
-62.369391

>  <inchikey>  (216) 
QPTKRRLBEWYUOG-UHFFFAOYSA-N

>  <gnina_score_min>  (216) 
6.401

>  <gnina_score>  (216) 
6.33

>  <ref_mols>  (216) 
Z3556a

>  <HIPPO Compound ID>  (216) 
178760

>  <distance_score>  (216) 
0.694848

>  <rmsd(smina/fragmenstein)>  (216) 
0.845

>  <ref_pdb>  (216) 
Z3556a

>  <inspiration_score>  (216) 
None

$$$$
P115714
     RDKit          3D

 31 35  0  0  0  0  0  0  0  0999 V2000
  -11.5699    2.2402   -6.0461 C   0  0  0  0  0  0  0  0  0  0  0  0
  -10.7733    2.5944   -4.8325 C   0  0  0  0  0  0  0  0  0  0  0  0
   -9.4955    3.3802   -5.0298 C   0  0  0  0  0  0  0  0  0  0  0  0
   -8.6378    2.8279   -6.1590 C   0  0  0  0  0  0  0  0  0  0  0  0
   -9.0875    3.3698   -7.4284 N   0  0  0  0  0  0  0  0  0  0  0  0
   -8.5892    4.7329   -7.6263 C   0  0  0  0  0  0  0  0  0  0  0  0
   -8.3821    4.8358   -9.0890 C   0  0  0  0  0  0  0  0  0  0  0  0
   -8.1216    5.9717   -9.8160 C   0  0  0  0  0  0  0  0  0  0  0  0
   -7.8915    5.8133  -11.1725 C   0  0  0  0  0  0  0  0  0  0  0  0
   -7.9256    4.5413  -11.7766 C   0  0  0  0  0  0  0  0  0  0  0  0
   -7.6130    4.4407  -13.1254 N   0  0  0  0  0  0  0  0  0  0  0  0
   -7.2658    5.5303  -14.1551 C   0  0  0  0  0  0  0  0  0  0  0  0
   -7.1115    6.6788  -14.0185 O   0  0  0  0  0  0  0  0  0  0  0  0
   -7.0918    5.0000  -15.5051 C   0  0  0  0  0  0  0  0  0  0  0  0
   -8.1730    4.5043  -16.2272 C   0  0  0  0  0  0  0  0  0  0  0  0
   -8.0298    4.3676  -17.6055 C   0  0  0  0  0  0  0  0  0  0  0  0
   -9.2078    3.9014  -18.4118 C   0  0  0  0  0  0  0  0  0  0  0  0
   -6.9091    4.6933  -18.2990 N   0  0  0  0  0  0  0  0  0  0  0  0
   -5.8906    5.1307  -17.5363 C   0  0  0  0  0  0  0  0  0  0  0  0
   -5.8907    5.2696  -16.1628 C   0  0  0  0  0  0  0  0  0  0  0  0
   -4.6068    5.7505  -15.8463 C   0  0  0  0  0  0  0  0  0  0  0  0
   -3.8459    5.9344  -16.9295 N   0  0  0  0  0  0  0  0  0  0  0  0
   -4.6893    5.6540  -17.9582 N   0  0  0  0  0  0  0  0  0  0  0  0
   -4.4445    6.1860  -19.2912 C   0  0  0  0  0  0  0  0  0  0  0  0
   -3.1949    7.0684  -19.4348 C   0  0  0  0  0  0  0  0  0  0  0  0
   -2.0498    6.1046  -19.7487 C   0  0  0  0  0  0  0  0  0  0  0  0
   -2.7066    4.7967  -20.1863 C   0  0  0  0  0  0  0  0  0  0  0  0
   -4.1876    5.1207  -20.3470 C   0  0  0  0  0  0  0  0  0  0  0  0
   -8.2176    3.3990  -11.0293 C   0  0  0  0  0  0  0  0  0  0  0  0
   -8.4395    3.5692   -9.6742 C   0  0  0  0  0  0  0  0  0  0  0  0
   -8.7063    2.5559   -8.6058 C   0  0  0  0  0  0  0  0  0  0  0  0
  1  2  1  0
  2  3  1  0
  3  4  1  0
  4  5  1  0
  5  6  1  0
  6  7  1  0
  7  8  2  0
  8  9  1  0
  9 10  2  0
 10 11  1  0
 11 12  1  0
 12 13  2  0
 12 14  1  0
 14 15  2  0
 15 16  1  0
 16 17  1  0
 16 18  2  0
 18 19  1  0
 19 20  2  0
 20 21  1  0
 21 22  2  0
 22 23  1  0
 23 24  1  0
 24 25  1  0
 25 26  1  0
 26 27  1  0
 27 28  1  0
 10 29  1  0
 29 30  2  0
 30 31  1  0
 31  5  1  0
 30  7  1  0
 20 14  1  0
 28 24  1  0
 23 19  1  0
M  END
>  <name>  (217) 
P115714

>  <alias>  (217) 
None

>  <smina_score_min>  (217) 
-8.323

>  <exports>  (217) 
['/opt/xchem-fragalysis-2/maxwin/BulkDock/OUTPUTS/openbind_xx01zvns2b_c2_elabs_1LOUTNY.sdf', '/opt/xchem-fragalysis-2/maxwin/BulkDock/OUTPUTS/openbind_xx01zvns2b_c2_elabs_1LSYIIV.sdf']

>  <tags>  (217) 
syndirella_placed,openbind_xx01zvns2b_c2_elabs,openbind_xx01zvns2b_c2_elabs_scored_6.2plus,syndirella_product,openbind_xx01zvns2b_c2_elabs_scored,openbind_xx01zvns2b_c2_elabs_scored_top80percent,BulkDock Fragalysis export

>  <subsites>  (217) 
1 - Z4590/B/203/1

>  <smiles>  (217) 
CCCCN1Cc2ccc(NC(=O)c3cc(C)nc4c3cnn4C3CCCC3)cc2C1

>  <HIPPO Pose ID>  (217) 
115714

>  <energy_score>  (217) 
-17.494974

>  <inchikey>  (217) 
VXDHOYITLYBLDX-UHFFFAOYSA-N

>  <gnina_score_min>  (217) 
6.396

>  <gnina_score>  (217) 
6.286

>  <ref_mols>  (217) 
Z3556a

>  <HIPPO Compound ID>  (217) 
178765

>  <distance_score>  (217) 
0.788927

>  <rmsd(smina/fragmenstein)>  (217) 
0.758

>  <ref_pdb>  (217) 
Z3556a

>  <inspiration_score>  (217) 
None

$$$$
P115715
     RDKit          3D

 31 35  0  0  0  0  0  0  0  0999 V2000
   -9.1618    3.8899  -18.2616 C   0  0  0  0  0  0  0  0  0  0  0  0
   -7.9933    4.3823  -17.4542 C   0  0  0  0  0  0  0  0  0  0  0  0
   -8.1542    4.6082  -16.0876 C   0  0  0  0  0  0  0  0  0  0  0  0
   -7.0778    5.1287  -15.3686 C   0  0  0  0  0  0  0  0  0  0  0  0
   -7.2164    5.5746  -13.9776 C   0  0  0  0  0  0  0  0  0  0  0  0
   -7.0167    6.6984  -13.7364 O   0  0  0  0  0  0  0  0  0  0  0  0
   -7.5684    4.4002  -13.0453 N   0  0  0  0  0  0  0  0  0  0  0  0
   -7.8328    4.3783  -11.6810 C   0  0  0  0  0  0  0  0  0  0  0  0
   -7.7938    5.5628  -10.9203 C   0  0  0  0  0  0  0  0  0  0  0  0
   -8.0634    5.5507   -9.5505 C   0  0  0  0  0  0  0  0  0  0  0  0
   -8.3883    4.3417   -8.9761 C   0  0  0  0  0  0  0  0  0  0  0  0
   -8.4268    3.1633   -9.7304 C   0  0  0  0  0  0  0  0  0  0  0  0
   -8.1395    3.1578  -11.0806 C   0  0  0  0  0  0  0  0  0  0  0  0
   -8.8566    2.0391   -8.8432 C   0  0  0  0  0  0  0  0  0  0  0  0
   -9.5239    2.7592   -7.7482 N   0  0  0  0  0  0  0  0  0  0  0  0
   -9.6975    1.9796   -6.5345 C   0  0  0  0  0  0  0  0  0  0  0  0
  -10.7546    2.6211   -5.6404 C   0  0  0  0  0  0  0  0  0  0  0  0
  -11.2190    1.7429   -4.7248 F   0  0  0  0  0  0  0  0  0  0  0  0
  -10.2351    3.6697   -4.9466 F   0  0  0  0  0  0  0  0  0  0  0  0
   -8.7877    4.0211   -7.5725 C   0  0  0  0  0  0  0  0  0  0  0  0
   -5.8661    5.3446  -16.0247 C   0  0  0  0  0  0  0  0  0  0  0  0
   -4.5758    5.8200  -15.7209 C   0  0  0  0  0  0  0  0  0  0  0  0
   -3.7672    5.8360  -16.7862 N   0  0  0  0  0  0  0  0  0  0  0  0
   -4.5549    5.3612  -17.7834 N   0  0  0  0  0  0  0  0  0  0  0  0
   -4.0717    5.2775  -19.1404 C   0  0  0  0  0  0  0  0  0  0  0  0
   -2.5890    4.9395  -19.3052 C   0  0  0  0  0  0  0  0  0  0  0  0
   -2.3302    5.2605  -20.7709 C   0  0  0  0  0  0  0  0  0  0  0  0
   -3.2450    6.4417  -21.0976 C   0  0  0  0  0  0  0  0  0  0  0  0
   -4.2026    6.5890  -19.9150 C   0  0  0  0  0  0  0  0  0  0  0  0
   -5.8280    5.0579  -17.3750 C   0  0  0  0  0  0  0  0  0  0  0  0
   -6.8408    4.6003  -18.1344 N   0  0  0  0  0  0  0  0  0  0  0  0
  1  2  1  0
  2  3  2  0
  3  4  1  0
  4  5  1  0
  5  6  2  0
  5  7  1  0
  7  8  1  0
  8  9  2  0
  9 10  1  0
 10 11  2  0
 11 12  1  0
 12 13  2  0
 12 14  1  0
 14 15  1  0
 15 16  1  0
 16 17  1  0
 17 18  1  0
 17 19  1  0
 15 20  1  0
  4 21  2  0
 21 22  1  0
 22 23  2  0
 23 24  1  0
 24 25  1  0
 25 26  1  0
 26 27  1  0
 27 28  1  0
 28 29  1  0
 24 30  1  0
 30 31  2  0
 31  2  1  0
 13  8  1  0
 30 21  1  0
 20 11  1  0
 29 25  1  0
M  END
>  <name>  (218) 
P115715

>  <alias>  (218) 
None

>  <smina_score_min>  (218) 
-9.491

>  <exports>  (218) 
['/opt/xchem-fragalysis-2/maxwin/BulkDock/OUTPUTS/openbind_xx01zvns2b_c2_elabs_1LOUTNY.sdf', '/opt/xchem-fragalysis-2/maxwin/BulkDock/OUTPUTS/openbind_xx01zvns2b_c2_elabs_1LSYIIV.sdf']

>  <tags>  (218) 
syndirella_placed,openbind_xx01zvns2b_c2_elabs,openbind_xx01zvns2b_c2_elabs_scored_6.2plus,syndirella_product,openbind_xx01zvns2b_c2_elabs_scored,openbind_xx01zvns2b_c2_elabs_scored_top80percent,BulkDock Fragalysis export

>  <subsites>  (218) 
1 - Z4590/B/203/1

>  <smiles>  (218) 
Cc1cc(C(=O)Nc2ccc3c(c2)CN(CC(F)F)C3)c2cnn(C3CCCC3)c2n1

>  <HIPPO Pose ID>  (218) 
115715

>  <energy_score>  (218) 
-39.304484

>  <inchikey>  (218) 
WURNHGYYYAAHLX-UHFFFAOYSA-N

>  <gnina_score_min>  (218) 
6.372

>  <gnina_score>  (218) 
6.275

>  <ref_mols>  (218) 
Z3556a

>  <HIPPO Compound ID>  (218) 
178766

>  <distance_score>  (218) 
0.585807

>  <rmsd(smina/fragmenstein)>  (218) 
0.375

>  <ref_pdb>  (218) 
Z3556a

>  <inspiration_score>  (218) 
None

$$$$
P115716
     RDKit          3D

 31 35  0  0  0  0  0  0  0  0999 V2000
   -9.0730    3.8538  -18.3779 C   0  0  0  0  0  0  0  0  0  0  0  0
   -7.9524    4.3332  -17.4974 C   0  0  0  0  0  0  0  0  0  0  0  0
   -8.1866    4.4785  -16.1301 C   0  0  0  0  0  0  0  0  0  0  0  0
   -7.1636    4.9932  -15.3403 C   0  0  0  0  0  0  0  0  0  0  0  0
   -7.4084    5.5035  -13.9851 C   0  0  0  0  0  0  0  0  0  0  0  0
   -7.2423    6.6499  -13.8335 O   0  0  0  0  0  0  0  0  0  0  0  0
   -7.8337    4.4119  -12.9791 N   0  0  0  0  0  0  0  0  0  0  0  0
   -8.0445    4.4817  -11.6031 C   0  0  0  0  0  0  0  0  0  0  0  0
   -7.8081    5.7113  -10.9495 C   0  0  0  0  0  0  0  0  0  0  0  0
   -7.9552    5.8520   -9.5730 C   0  0  0  0  0  0  0  0  0  0  0  0
   -8.3599    4.7460   -8.8652 C   0  0  0  0  0  0  0  0  0  0  0  0
   -8.6223    3.5375   -9.5091 C   0  0  0  0  0  0  0  0  0  0  0  0
   -8.4595    3.3654  -10.8755 C   0  0  0  0  0  0  0  0  0  0  0  0
   -9.1086    2.6033   -8.4859 C   0  0  0  0  0  0  0  0  0  0  0  0
   -9.4212    1.4516   -8.6970 O   0  0  0  0  0  0  0  0  0  0  0  0
   -9.1635    3.3073   -7.2853 N   0  0  0  0  0  0  0  0  0  0  0  0
   -9.4061    2.6658   -6.0013 C   0  0  0  0  0  0  0  0  0  0  0  0
   -9.2102    3.6032   -4.8041 C   0  0  0  0  0  0  0  0  0  0  0  0
  -10.8042    2.0575   -5.9380 C   0  0  0  0  0  0  0  0  0  0  0  0
   -8.5793    4.6201   -7.4047 C   0  0  0  0  0  0  0  0  0  0  0  0
   -5.9320    5.2910  -15.9358 C   0  0  0  0  0  0  0  0  0  0  0  0
   -4.6851    5.8044  -15.5355 C   0  0  0  0  0  0  0  0  0  0  0  0
   -3.8484    5.9803  -16.5597 N   0  0  0  0  0  0  0  0  0  0  0  0
   -4.5996    5.6494  -17.6466 N   0  0  0  0  0  0  0  0  0  0  0  0
   -4.0788    6.0358  -18.9458 C   0  0  0  0  0  0  0  0  0  0  0  0
   -3.0566    5.0385  -19.5076 C   0  0  0  0  0  0  0  0  0  0  0  0
   -3.3867    4.9155  -20.9917 C   0  0  0  0  0  0  0  0  0  0  0  0
   -4.8877    5.1492  -21.0527 C   0  0  0  0  0  0  0  0  0  0  0  0
   -5.0873    6.2992  -20.0775 C   0  0  0  0  0  0  0  0  0  0  0  0
   -5.8294    5.1337  -17.3076 C   0  0  0  0  0  0  0  0  0  0  0  0
   -6.7913    4.6605  -18.1222 N   0  0  0  0  0  0  0  0  0  0  0  0
  1  2  1  0
  2  3  2  0
  3  4  1  0
  4  5  1  0
  5  6  2  0
  5  7  1  0
  7  8  1  0
  8  9  2  0
  9 10  1  0
 10 11  2  0
 11 12  1  0
 12 13  2  0
 12 14  1  0
 14 15  2  0
 14 16  1  0
 16 17  1  0
 17 18  1  0
 17 19  1  0
 16 20  1  0
  4 21  2  0
 21 22  1  0
 22 23  2  0
 23 24  1  0
 24 25  1  0
 25 26  1  0
 26 27  1  0
 27 28  1  0
 28 29  1  0
 24 30  1  0
 30 31  2  0
 31  2  1  0
 13  8  1  0
 30 21  1  0
 20 11  1  0
 29 25  1  0
M  END
>  <name>  (219) 
P115716

>  <alias>  (219) 
None

>  <smina_score_min>  (219) 
-9.291

>  <exports>  (219) 
['/opt/xchem-fragalysis-2/maxwin/BulkDock/OUTPUTS/openbind_xx01zvns2b_c2_elabs_1LOUTNY.sdf', '/opt/xchem-fragalysis-2/maxwin/BulkDock/OUTPUTS/openbind_xx01zvns2b_c2_elabs_1LSYIIV.sdf']

>  <tags>  (219) 
syndirella_placed,openbind_xx01zvns2b_c2_elabs,openbind_xx01zvns2b_c2_elabs_scored_6.2plus,syndirella_product,openbind_xx01zvns2b_c2_elabs_scored,openbind_xx01zvns2b_c2_elabs_scored_top80percent,BulkDock Fragalysis export

>  <subsites>  (219) 
1 - Z4590/B/203/1

>  <smiles>  (219) 
Cc1cc(C(=O)Nc2ccc3c(c2)C(=O)N(C(C)C)C3)c2cnn(C3CCCC3)c2n1

>  <HIPPO Pose ID>  (219) 
115716

>  <energy_score>  (219) 
-22.36156

>  <inchikey>  (219) 
UOKOIJKNBBEYKP-UHFFFAOYSA-N

>  <gnina_score_min>  (219) 
6.209

>  <gnina_score>  (219) 
6.309

>  <ref_mols>  (219) 
Z3556a

>  <HIPPO Compound ID>  (219) 
178767

>  <distance_score>  (219) 
0.666566

>  <rmsd(smina/fragmenstein)>  (219) 
0.376

>  <ref_pdb>  (219) 
Z3556a

>  <inspiration_score>  (219) 
None

$$$$
P115722
     RDKit          3D

 31 34  0  0  0  0  0  0  0  0999 V2000
   -2.0569    4.5649  -19.1172 C   0  0  0  0  0  0  0  0  0  0  0  0
   -2.8762    5.8122  -19.3934 C   0  0  0  0  0  0  0  0  0  0  0  0
   -4.3879    5.6116  -19.1591 C   0  0  2  0  0  0  0  0  0  0  0  0
   -5.1390    6.8153  -19.7486 C   0  0  0  0  0  0  0  0  0  0  0  0
   -4.7737    5.4310  -17.7610 N   0  0  0  0  0  0  0  0  0  0  0  0
   -3.9957    5.8931  -16.7477 N   0  0  0  0  0  0  0  0  0  0  0  0
   -4.7703    5.7401  -15.6681 C   0  0  0  0  0  0  0  0  0  0  0  0
   -6.0315    5.1876  -15.9703 C   0  0  0  0  0  0  0  0  0  0  0  0
   -7.2300    4.8950  -15.3061 C   0  0  0  0  0  0  0  0  0  0  0  0
   -7.4136    5.4221  -13.9482 C   0  0  0  0  0  0  0  0  0  0  0  0
   -7.2190    6.5692  -13.8271 O   0  0  0  0  0  0  0  0  0  0  0  0
   -7.8463    4.3615  -12.9054 N   0  0  0  0  0  0  0  0  0  0  0  0
   -8.0310    4.4694  -11.5247 C   0  0  0  0  0  0  0  0  0  0  0  0
   -7.7937    5.7293  -10.9400 C   0  0  0  0  0  0  0  0  0  0  0  0
   -7.9213    5.9329   -9.5771 C   0  0  0  0  0  0  0  0  0  0  0  0
   -8.3077    4.8576   -8.8150 C   0  0  0  0  0  0  0  0  0  0  0  0
   -8.5715    3.5946   -9.3604 C   0  0  0  0  0  0  0  0  0  0  0  0
   -8.4223    3.3788  -10.7287 C   0  0  0  0  0  0  0  0  0  0  0  0
   -9.0149    2.6893   -8.2291 C   0  0  0  0  0  0  0  0  0  0  0  0
   -9.2943    3.6467   -7.1393 N   0  0  0  0  0  0  0  0  0  0  0  0
   -9.5740    3.2088   -5.7917 C   0  0  0  0  0  0  0  0  0  0  0  0
   -8.5306    3.4374   -4.6802 C   0  0  0  0  0  0  0  0  0  0  0  0
   -8.1909    4.8541   -4.2235 C   0  0  0  0  0  0  0  0  0  0  0  0
   -9.3587    5.5852   -3.8727 O   0  0  0  0  0  0  0  0  0  0  0  0
   -9.0416    6.9123   -3.4734 C   0  0  0  0  0  0  0  0  0  0  0  0
   -8.4922    4.8281   -7.3426 C   0  0  0  0  0  0  0  0  0  0  0  0
   -8.2983    4.3907  -16.0456 C   0  0  0  0  0  0  0  0  0  0  0  0
   -8.1434    4.2456  -17.4249 C   0  0  0  0  0  0  0  0  0  0  0  0
   -9.3121    3.8050  -18.2578 C   0  0  0  0  0  0  0  0  0  0  0  0
   -7.0029    4.5186  -18.1027 N   0  0  0  0  0  0  0  0  0  0  0  0
   -6.0001    4.9801  -17.3353 C   0  0  0  0  0  0  0  0  0  0  0  0
  1  2  1  0
  2  3  1  0
  3  4  1  1
  3  5  1  0
  5  6  1  0
  6  7  2  0
  7  8  1  0
  8  9  2  0
  9 10  1  0
 10 11  2  0
 10 12  1  0
 12 13  1  0
 13 14  2  0
 14 15  1  0
 15 16  2  0
 16 17  1  0
 17 18  2  0
 17 19  1  0
 19 20  1  0
 20 21  1  0
 21 22  1  0
 22 23  1  0
 23 24  1  0
 24 25  1  0
 20 26  1  0
  9 27  1  0
 27 28  2  0
 28 29  1  0
 28 30  1  0
 30 31  2  0
 31  5  1  0
 31  8  1  0
 18 13  1  0
 26 16  1  0
M  END
>  <name>  (220) 
P115722

>  <alias>  (220) 
None

>  <smina_score_min>  (220) 
-7.512

>  <exports>  (220) 
['/opt/xchem-fragalysis-2/maxwin/BulkDock/OUTPUTS/openbind_xx01zvns2b_c2_elabs_1LOUTNY.sdf', '/opt/xchem-fragalysis-2/maxwin/BulkDock/OUTPUTS/openbind_xx01zvns2b_c2_elabs_1LSYIIV.sdf']

>  <tags>  (220) 
syndirella_placed,openbind_xx01zvns2b_c2_elabs,openbind_xx01zvns2b_c2_elabs_scored_6.2plus,syndirella_product,openbind_xx01zvns2b_c2_elabs_scored,openbind_xx01zvns2b_c2_elabs_scored_top80percent,BulkDock Fragalysis export

>  <subsites>  (220) 
1 - Z4590/B/203/1

>  <smiles>  (220) 
CC[C@H](C)n1ncc2c(C(=O)Nc3ccc4c(c3)CN(CCCOC)C4)cc(C)nc21

>  <HIPPO Pose ID>  (220) 
115722

>  <energy_score>  (220) 
-28.806002

>  <inchikey>  (220) 
UAOHZLYQUBSQSZ-KRWDZBQOSA-N

>  <gnina_score_min>  (220) 
6.272

>  <gnina_score>  (220) 
6.23

>  <ref_mols>  (220) 
Z3556a

>  <HIPPO Compound ID>  (220) 
178776

>  <distance_score>  (220) 
0.683905

>  <rmsd(smina/fragmenstein)>  (220) 
0.367

>  <ref_pdb>  (220) 
Z3556a

>  <inspiration_score>  (220) 
None

$$$$
P115736
     RDKit          3D

 31 34  0  0  0  0  0  0  0  0999 V2000
   -8.9175    5.1998   -2.9165 C   0  0  0  0  0  0  0  0  0  0  0  0
   -9.0332    4.9259   -4.4104 C   0  0  0  0  0  0  0  0  0  0  0  0
   -9.0314    3.4255   -4.6988 C   0  0  0  0  0  0  0  0  0  0  0  0
   -9.5261    2.9721   -6.0866 C   0  0  0  0  0  0  0  0  0  0  0  0
   -8.6119    3.3044   -7.1668 N   0  0  0  0  0  0  0  0  0  0  0  0
   -8.5146    4.7304   -7.4547 C   0  0  0  0  0  0  0  0  0  0  0  0
   -8.3397    4.8212   -8.9241 C   0  0  0  0  0  0  0  0  0  0  0  0
   -8.0613    5.9533   -9.6539 C   0  0  0  0  0  0  0  0  0  0  0  0
   -7.9283    5.8119  -11.0258 C   0  0  0  0  0  0  0  0  0  0  0  0
   -8.0730    4.5591  -11.6506 C   0  0  0  0  0  0  0  0  0  0  0  0
   -7.8744    4.4890  -13.0288 N   0  0  0  0  0  0  0  0  0  0  0  0
   -7.5058    5.5915  -14.0471 C   0  0  0  0  0  0  0  0  0  0  0  0
   -7.3861    6.7450  -13.9045 O   0  0  0  0  0  0  0  0  0  0  0  0
   -7.2832    5.0861  -15.4017 C   0  0  0  0  0  0  0  0  0  0  0  0
   -8.3428    4.6505  -16.1913 C   0  0  0  0  0  0  0  0  0  0  0  0
   -8.1324    4.4772  -17.5590 C   0  0  0  0  0  0  0  0  0  0  0  0
   -9.2371    3.9629  -18.4660 C   0  0  0  0  0  0  0  0  0  0  0  0
   -9.3890    2.4884  -18.2070 C   0  0  0  0  0  0  0  0  0  0  0  0
  -10.6105    4.5978  -18.3689 C   0  0  0  0  0  0  0  0  0  0  0  0
   -6.9373    4.6788  -18.1606 N   0  0  0  0  0  0  0  0  0  0  0  0
   -5.9338    5.0553  -17.3498 C   0  0  0  0  0  0  0  0  0  0  0  0
   -6.0279    5.2670  -15.9868 C   0  0  0  0  0  0  0  0  0  0  0  0
   -4.7378    5.6614  -15.5932 C   0  0  0  0  0  0  0  0  0  0  0  0
   -3.8697    5.6680  -16.6076 N   0  0  0  0  0  0  0  0  0  0  0  0
   -4.6312    5.3361  -17.6895 N   0  0  0  0  0  0  0  0  0  0  0  0
   -3.9915    5.2962  -19.0032 C   0  0  0  0  0  0  0  0  0  0  0  0
   -4.9397    5.1924  -20.2038 C   0  0  0  0  0  0  0  0  0  0  0  0
   -3.0815    6.5160  -19.2208 C   0  0  0  0  0  0  0  0  0  0  0  0
   -8.3823    3.4199  -10.8939 C   0  0  0  0  0  0  0  0  0  0  0  0
   -8.5151    3.5727   -9.5181 C   0  0  0  0  0  0  0  0  0  0  0  0
   -8.8766    2.5873   -8.4427 C   0  0  0  0  0  0  0  0  0  0  0  0
  1  2  1  0
  2  3  1  0
  3  4  1  0
  4  5  1  0
  5  6  1  0
  6  7  1  0
  7  8  2  0
  8  9  1  0
  9 10  2  0
 10 11  1  0
 11 12  1  0
 12 13  2  0
 12 14  1  0
 14 15  2  0
 15 16  1  0
 16 17  1  0
 17 18  1  0
 17 19  1  0
 16 20  2  0
 20 21  1  0
 21 22  2  0
 22 23  1  0
 23 24  2  0
 24 25  1  0
 25 26  1  0
 26 27  1  0
 26 28  1  0
 10 29  1  0
 29 30  2  0
 30 31  1  0
 31  5  1  0
 30  7  1  0
 22 14  1  0
 25 21  1  0
M  END
>  <name>  (221) 
P115736

>  <alias>  (221) 
None

>  <smina_score_min>  (221) 
-7.397

>  <exports>  (221) 
['/opt/xchem-fragalysis-2/maxwin/BulkDock/OUTPUTS/openbind_xx01zvns2b_c2_elabs_1LOUTNY.sdf', '/opt/xchem-fragalysis-2/maxwin/BulkDock/OUTPUTS/openbind_xx01zvns2b_c2_elabs_1LSYIIV.sdf']

>  <tags>  (221) 
syndirella_placed,openbind_xx01zvns2b_c2_elabs,openbind_xx01zvns2b_c2_elabs_scored_6.2plus,syndirella_product,openbind_xx01zvns2b_c2_elabs_scored,openbind_xx01zvns2b_c2_elabs_scored_top80percent,BulkDock Fragalysis export

>  <subsites>  (221) 
1 - Z4590/B/203/1

>  <smiles>  (221) 
CCCCN1Cc2ccc(NC(=O)c3cc(C(C)C)nc4c3cnn4C(C)C)cc2C1

>  <HIPPO Pose ID>  (221) 
115736

>  <energy_score>  (221) 
-35.380094

>  <inchikey>  (221) 
SFHZSBOFLMPPGA-UHFFFAOYSA-N

>  <gnina_score_min>  (221) 
6.399

>  <gnina_score>  (221) 
6.335

>  <ref_mols>  (221) 
Z3556a

>  <HIPPO Compound ID>  (221) 
178792

>  <distance_score>  (221) 
0.651961

>  <rmsd(smina/fragmenstein)>  (221) 
0.668

>  <ref_pdb>  (221) 
Z3556a

>  <inspiration_score>  (221) 
None

$$$$
P115741
     RDKit          3D

 31 35  0  0  0  0  0  0  0  0999 V2000
   -9.2656    3.8822  -18.0995 C   0  0  0  0  0  0  0  0  0  0  0  0
   -8.1018    4.3361  -17.2635 C   0  0  0  0  0  0  0  0  0  0  0  0
   -8.2503    4.4988  -15.8824 C   0  0  0  0  0  0  0  0  0  0  0  0
   -7.1681    4.9778  -15.1394 C   0  0  0  0  0  0  0  0  0  0  0  0
   -7.2953    5.4193  -13.7378 C   0  0  0  0  0  0  0  0  0  0  0  0
   -7.0436    6.5410  -13.5264 O   0  0  0  0  0  0  0  0  0  0  0  0
   -7.7001    4.2817  -12.7684 N   0  0  0  0  0  0  0  0  0  0  0  0
   -7.9630    4.3093  -11.3945 C   0  0  0  0  0  0  0  0  0  0  0  0
   -7.7657    5.5116  -10.6765 C   0  0  0  0  0  0  0  0  0  0  0  0
   -8.0007    5.5918   -9.3013 C   0  0  0  0  0  0  0  0  0  0  0  0
   -8.4289    4.4453   -8.6722 C   0  0  0  0  0  0  0  0  0  0  0  0
   -8.6292    3.2632   -9.3609 C   0  0  0  0  0  0  0  0  0  0  0  0
   -8.4031    3.1588  -10.7278 C   0  0  0  0  0  0  0  0  0  0  0  0
   -9.1749    2.3075   -8.3957 C   0  0  0  0  0  0  0  0  0  0  0  0
   -9.5634    1.1944   -8.6761 O   0  0  0  0  0  0  0  0  0  0  0  0
   -9.2497    2.9512   -7.1929 N   0  0  0  0  0  0  0  0  0  0  0  0
   -9.9160    2.4004   -6.0427 C   0  0  0  0  0  0  0  0  0  0  0  0
   -8.8351    4.2441   -7.2835 C   0  0  0  0  0  0  0  0  0  0  0  0
   -8.8407    5.1250   -6.4427 O   0  0  0  0  0  0  0  0  0  0  0  0
   -5.9616    5.2230  -15.8078 C   0  0  0  0  0  0  0  0  0  0  0  0
   -4.6600    5.6762  -15.5032 C   0  0  0  0  0  0  0  0  0  0  0  0
   -3.8564    5.7149  -16.5740 N   0  0  0  0  0  0  0  0  0  0  0  0
   -4.6808    5.3391  -17.5890 N   0  0  0  0  0  0  0  0  0  0  0  0
   -4.1920    5.2704  -18.9569 C   0  0  0  0  0  0  0  0  0  0  0  0
   -4.2624    6.6011  -19.6522 C   0  0  0  0  0  0  0  0  0  0  0  0
   -3.8657    7.8475  -19.2021 C   0  0  0  0  0  0  0  0  0  0  0  0
   -4.0767    8.8713  -20.1701 C   0  0  0  0  0  0  0  0  0  0  0  0
   -4.6157    8.3748  -21.3348 C   0  0  0  0  0  0  0  0  0  0  0  0
   -4.8616    6.6856  -21.2590 S   0  0  0  0  0  0  0  0  0  0  0  0
   -5.9410    5.0080  -17.1727 C   0  0  0  0  0  0  0  0  0  0  0  0
   -6.9555    4.5796  -17.9403 N   0  0  0  0  0  0  0  0  0  0  0  0
  1  2  1  0
  2  3  2  0
  3  4  1  0
  4  5  1  0
  5  6  2  0
  5  7  1  0
  7  8  1  0
  8  9  2  0
  9 10  1  0
 10 11  2  0
 11 12  1  0
 12 13  2  0
 12 14  1  0
 14 15  2  0
 14 16  1  0
 16 17  1  0
 16 18  1  0
 18 19  2  0
  4 20  2  0
 20 21  1  0
 21 22  2  0
 22 23  1  0
 23 24  1  0
 24 25  1  0
 25 26  2  0
 26 27  1  0
 27 28  2  0
 28 29  1  0
 23 30  1  0
 30 31  2  0
 31  2  1  0
 13  8  1  0
 30 20  1  0
 18 11  1  0
 29 25  1  0
M  END
>  <name>  (222) 
P115741

>  <alias>  (222) 
None

>  <smina_score_min>  (222) 
-8.655

>  <exports>  (222) 
['/opt/xchem-fragalysis-2/maxwin/BulkDock/OUTPUTS/openbind_xx01zvns2b_c2_elabs_1LOUTNY.sdf', '/opt/xchem-fragalysis-2/maxwin/BulkDock/OUTPUTS/openbind_xx01zvns2b_c2_elabs_1LSYIIV.sdf']

>  <tags>  (222) 
syndirella_placed,openbind_xx01zvns2b_c2_elabs,openbind_xx01zvns2b_c2_elabs_scored_6.2plus,syndirella_product,openbind_xx01zvns2b_c2_elabs_scored,openbind_xx01zvns2b_c2_elabs_scored_top80percent,BulkDock Fragalysis export

>  <subsites>  (222) 
1 - Z4590/B/203/1

>  <smiles>  (222) 
Cc1cc(C(=O)Nc2ccc3c(c2)C(=O)N(C)C3=O)c2cnn(Cc3cccs3)c2n1

>  <HIPPO Pose ID>  (222) 
115741

>  <energy_score>  (222) 
-52.365491

>  <inchikey>  (222) 
XPZPELFQNHCZHX-UHFFFAOYSA-N

>  <gnina_score_min>  (222) 
6.22

>  <gnina_score>  (222) 
6.075

>  <ref_mols>  (222) 
Z3556a

>  <HIPPO Compound ID>  (222) 
178798

>  <distance_score>  (222) 
0.441653

>  <rmsd(smina/fragmenstein)>  (222) 
0.797

>  <ref_pdb>  (222) 
Z3556a

>  <inspiration_score>  (222) 
None

$$$$
P115742
     RDKit          3D

 31 35  0  0  0  0  0  0  0  0999 V2000
  -10.0930    2.5404   -5.8836 C   0  0  0  0  0  0  0  0  0  0  0  0
   -8.9762    3.5656   -5.8953 C   0  0  0  0  0  0  0  0  0  0  0  0
   -8.1995    3.6485   -4.9807 O   0  0  0  0  0  0  0  0  0  0  0  0
   -9.0701    4.3168   -7.0999 N   0  0  0  0  0  0  0  0  0  0  0  0
   -8.2997    5.5308   -7.5680 C   0  0  0  0  0  0  0  0  0  0  0  0
   -8.2773    5.6887   -9.0299 C   0  0  0  0  0  0  0  0  0  0  0  0
   -8.1928    6.7736   -9.8638 C   0  0  0  0  0  0  0  0  0  0  0  0
   -8.0433    6.5117  -11.2229 C   0  0  0  0  0  0  0  0  0  0  0  0
   -7.9784    5.1890  -11.7122 C   0  0  0  0  0  0  0  0  0  0  0  0
   -7.7394    4.9752  -13.0713 N   0  0  0  0  0  0  0  0  0  0  0  0
   -7.3035    5.8716  -14.1005 C   0  0  0  0  0  0  0  0  0  0  0  0
   -7.1065    7.0538  -14.0790 O   0  0  0  0  0  0  0  0  0  0  0  0
   -7.0851    5.2476  -15.4151 C   0  0  0  0  0  0  0  0  0  0  0  0
   -8.1323    4.6652  -16.1317 C   0  0  0  0  0  0  0  0  0  0  0  0
   -7.9327    4.3622  -17.4793 C   0  0  0  0  0  0  0  0  0  0  0  0
   -9.0821    3.8416  -18.2957 C   0  0  0  0  0  0  0  0  0  0  0  0
   -6.7665    4.5518  -18.1421 N   0  0  0  0  0  0  0  0  0  0  0  0
   -5.7878    5.0938  -17.3971 C   0  0  0  0  0  0  0  0  0  0  0  0
   -5.8613    5.4516  -16.0639 C   0  0  0  0  0  0  0  0  0  0  0  0
   -4.5902    5.9864  -15.7687 C   0  0  0  0  0  0  0  0  0  0  0  0
   -3.7519    5.9417  -16.8106 N   0  0  0  0  0  0  0  0  0  0  0  0
   -4.5299    5.4440  -17.8113 N   0  0  0  0  0  0  0  0  0  0  0  0
   -4.0006    5.2985  -19.1586 C   0  0  0  0  0  0  0  0  0  0  0  0
   -3.9397    6.6170  -19.8761 C   0  0  0  0  0  0  0  0  0  0  0  0
   -3.1725    7.7277  -19.5759 C   0  0  0  0  0  0  0  0  0  0  0  0
   -3.3695    8.7934  -20.4999 C   0  0  0  0  0  0  0  0  0  0  0  0
   -4.2731    8.4604  -21.4831 C   0  0  0  0  0  0  0  0  0  0  0  0
   -4.8779    6.8739  -21.2886 S   0  0  0  0  0  0  0  0  0  0  0  0
   -8.0983    4.1082  -10.8313 C   0  0  0  0  0  0  0  0  0  0  0  0
   -8.2390    4.4057   -9.4875 C   0  0  0  0  0  0  0  0  0  0  0  0
   -8.2391    3.6302   -8.2233 C   0  0  0  0  0  0  0  0  0  0  0  0
  1  2  1  0
  2  3  2  0
  2  4  1  0
  4  5  1  0
  5  6  1  0
  6  7  2  0
  7  8  1  0
  8  9  2  0
  9 10  1  0
 10 11  1  0
 11 12  2  0
 11 13  1  0
 13 14  2  0
 14 15  1  0
 15 16  1  0
 15 17  2  0
 17 18  1  0
 18 19  2  0
 19 20  1  0
 20 21  2  0
 21 22  1  0
 22 23  1  0
 23 24  1  0
 24 25  2  0
 25 26  1  0
 26 27  2  0
 27 28  1  0
  9 29  1  0
 29 30  2  0
 30 31  1  0
 31  4  1  0
 30  6  1  0
 19 13  1  0
 28 24  1  0
 22 18  1  0
M  END
>  <name>  (223) 
P115742

>  <alias>  (223) 
None

>  <smina_score_min>  (223) 
-8.415

>  <exports>  (223) 
['/opt/xchem-fragalysis-2/maxwin/BulkDock/OUTPUTS/openbind_xx01zvns2b_c2_elabs_1LOUTNY.sdf', '/opt/xchem-fragalysis-2/maxwin/BulkDock/OUTPUTS/openbind_xx01zvns2b_c2_elabs_1LSYIIV.sdf']

>  <tags>  (223) 
syndirella_placed,openbind_xx01zvns2b_c2_elabs,openbind_xx01zvns2b_c2_elabs_scored_6.2plus,syndirella_product,openbind_xx01zvns2b_c2_elabs_scored,openbind_xx01zvns2b_c2_elabs_scored_top80percent,BulkDock Fragalysis export

>  <subsites>  (223) 
1 - Z4590/B/203/1

>  <smiles>  (223) 
CC(=O)N1Cc2ccc(NC(=O)c3cc(C)nc4c3cnn4Cc3cccs3)cc2C1

>  <HIPPO Pose ID>  (223) 
115742

>  <energy_score>  (223) 
-0.692576

>  <inchikey>  (223) 
KBSKFLJVHUDVES-UHFFFAOYSA-N

>  <gnina_score_min>  (223) 
6.286

>  <gnina_score>  (223) 
6.053

>  <ref_mols>  (223) 
Z3556a

>  <HIPPO Compound ID>  (223) 
178799

>  <distance_score>  (223) 
1.176785

>  <rmsd(smina/fragmenstein)>  (223) 
0.832

>  <ref_pdb>  (223) 
Z3556a

>  <inspiration_score>  (223) 
None

$$$$
P115743
     RDKit          3D

 31 35  0  0  0  0  0  0  0  0999 V2000
   -9.1635    3.7951   -3.3455 C   0  0  0  0  0  0  0  0  0  0  0  0
   -8.4538    3.9307   -4.6749 C   0  0  0  0  0  0  0  0  0  0  0  0
   -9.1809    3.2390   -5.8467 C   0  0  0  0  0  0  0  0  0  0  0  0
   -8.4769    3.5533   -7.0775 N   0  0  0  0  0  0  0  0  0  0  0  0
   -8.5290    4.9695   -7.4212 C   0  0  0  0  0  0  0  0  0  0  0  0
   -8.3864    4.9915   -8.8947 C   0  0  0  0  0  0  0  0  0  0  0  0
   -8.1443    6.0940   -9.6775 C   0  0  0  0  0  0  0  0  0  0  0  0
   -7.9829    5.8824  -11.0346 C   0  0  0  0  0  0  0  0  0  0  0  0
   -8.0671    4.5922  -11.5927 C   0  0  0  0  0  0  0  0  0  0  0  0
   -7.7806    4.4626  -12.9513 N   0  0  0  0  0  0  0  0  0  0  0  0
   -7.4892    5.5378  -14.0226 C   0  0  0  0  0  0  0  0  0  0  0  0
   -7.3675    6.6956  -13.9205 O   0  0  0  0  0  0  0  0  0  0  0  0
   -7.2536    4.9877  -15.3565 C   0  0  0  0  0  0  0  0  0  0  0  0
   -8.2963    4.4949  -16.1340 C   0  0  0  0  0  0  0  0  0  0  0  0
   -8.0702    4.2987  -17.4952 C   0  0  0  0  0  0  0  0  0  0  0  0
   -9.2119    3.8570  -18.3654 C   0  0  0  0  0  0  0  0  0  0  0  0
   -6.8845    4.5164  -18.1181 N   0  0  0  0  0  0  0  0  0  0  0  0
   -5.9072    4.9574  -17.3048 C   0  0  0  0  0  0  0  0  0  0  0  0
   -6.0060    5.2035  -15.9492 C   0  0  0  0  0  0  0  0  0  0  0  0
   -4.7290    5.6687  -15.5739 C   0  0  0  0  0  0  0  0  0  0  0  0
   -3.8630    5.6831  -16.5933 N   0  0  0  0  0  0  0  0  0  0  0  0
   -4.6226    5.2875  -17.6492 N   0  0  0  0  0  0  0  0  0  0  0  0
   -4.0489    5.2039  -18.9808 C   0  0  0  0  0  0  0  0  0  0  0  0
   -4.0846    6.5296  -19.6803 C   0  0  0  0  0  0  0  0  0  0  0  0
   -5.1208    7.0726  -20.4158 C   0  0  0  0  0  0  0  0  0  0  0  0
   -4.7872    8.3410  -20.9703 C   0  0  0  0  0  0  0  0  0  0  0  0
   -3.5111    8.7300  -20.6314 C   0  0  0  0  0  0  0  0  0  0  0  0
   -2.7195    7.5641  -19.6632 S   0  0  0  0  0  0  0  0  0  0  0  0
   -8.3643    3.4832  -10.7856 C   0  0  0  0  0  0  0  0  0  0  0  0
   -8.5227    3.7042   -9.4217 C   0  0  0  0  0  0  0  0  0  0  0  0
   -8.8408    2.7681   -8.2834 C   0  0  0  0  0  0  0  0  0  0  0  0
  1  2  1  0
  2  3  1  0
  3  4  1  0
  4  5  1  0
  5  6  1  0
  6  7  2  0
  7  8  1  0
  8  9  2  0
  9 10  1  0
 10 11  1  0
 11 12  2  0
 11 13  1  0
 13 14  2  0
 14 15  1  0
 15 16  1  0
 15 17  2  0
 17 18  1  0
 18 19  2  0
 19 20  1  0
 20 21  2  0
 21 22  1  0
 22 23  1  0
 23 24  1  0
 24 25  2  0
 25 26  1  0
 26 27  2  0
 27 28  1  0
  9 29  1  0
 29 30  2  0
 30 31  1  0
 31  4  1  0
 30  6  1  0
 19 13  1  0
 28 24  1  0
 22 18  1  0
M  END
>  <name>  (224) 
P115743

>  <alias>  (224) 
None

>  <smina_score_min>  (224) 
-8.024

>  <exports>  (224) 
['/opt/xchem-fragalysis-2/maxwin/BulkDock/OUTPUTS/openbind_xx01zvns2b_c2_elabs_1LOUTNY.sdf', '/opt/xchem-fragalysis-2/maxwin/BulkDock/OUTPUTS/openbind_xx01zvns2b_c2_elabs_1LSYIIV.sdf']

>  <tags>  (224) 
syndirella_placed,openbind_xx01zvns2b_c2_elabs,openbind_xx01zvns2b_c2_elabs_scored_6.2plus,syndirella_product,openbind_xx01zvns2b_c2_elabs_scored,openbind_xx01zvns2b_c2_elabs_scored_top80percent,BulkDock Fragalysis export

>  <subsites>  (224) 
1 - Z4590/B/203/1

>  <smiles>  (224) 
CCCN1Cc2ccc(NC(=O)c3cc(C)nc4c3cnn4Cc3cccs3)cc2C1

>  <HIPPO Pose ID>  (224) 
115743

>  <energy_score>  (224) 
-47.57674

>  <inchikey>  (224) 
ZQHDRKGVWLYMAD-UHFFFAOYSA-N

>  <gnina_score_min>  (224) 
6.32

>  <gnina_score>  (224) 
6.205

>  <ref_mols>  (224) 
Z3556a

>  <HIPPO Compound ID>  (224) 
178800

>  <distance_score>  (224) 
0.705412

>  <rmsd(smina/fragmenstein)>  (224) 
0.602

>  <ref_pdb>  (224) 
Z3556a

>  <inspiration_score>  (224) 
None

$$$$
P115745
     RDKit          3D

 31 35  0  0  0  0  0  0  0  0999 V2000
   -9.1706    3.8770  -18.1658 C   0  0  0  0  0  0  0  0  0  0  0  0
   -8.0553    4.3566  -17.2783 C   0  0  0  0  0  0  0  0  0  0  0  0
   -8.2933    4.5620  -15.9173 C   0  0  0  0  0  0  0  0  0  0  0  0
   -7.2708    5.0850  -15.1231 C   0  0  0  0  0  0  0  0  0  0  0  0
   -7.5135    5.5756  -13.7532 C   0  0  0  0  0  0  0  0  0  0  0  0
   -7.3006    6.7073  -13.5552 O   0  0  0  0  0  0  0  0  0  0  0  0
   -7.9983    4.4638  -12.7935 N   0  0  0  0  0  0  0  0  0  0  0  0
   -8.2240    4.4899  -11.4135 C   0  0  0  0  0  0  0  0  0  0  0  0
   -8.1572    5.7047  -10.7102 C   0  0  0  0  0  0  0  0  0  0  0  0
   -8.2942    5.7478   -9.3183 C   0  0  0  0  0  0  0  0  0  0  0  0
   -8.5030    4.5623   -8.6346 C   0  0  0  0  0  0  0  0  0  0  0  0
   -8.6027    3.3594   -9.3346 C   0  0  0  0  0  0  0  0  0  0  0  0
   -8.4702    3.3018  -10.7208 C   0  0  0  0  0  0  0  0  0  0  0  0
   -8.7984    2.2331   -8.3717 C   0  0  0  0  0  0  0  0  0  0  0  0
   -8.8190    2.8490   -7.0182 N   0  0  0  0  0  0  0  0  0  0  0  0
  -10.0085    2.4620   -6.2817 C   0  0  0  0  0  0  0  0  0  0  0  0
   -8.5117    4.2980   -7.1452 C   0  0  0  0  0  0  0  0  0  0  0  0
   -7.0683    4.5281   -6.6386 C   0  0  0  0  0  0  0  0  0  0  0  0
   -9.3994    5.2513   -6.3231 C   0  0  0  0  0  0  0  0  0  0  0  0
   -6.0218    5.3096  -15.7138 C   0  0  0  0  0  0  0  0  0  0  0  0
   -4.7459    5.7782  -15.3369 C   0  0  0  0  0  0  0  0  0  0  0  0
   -3.8683    5.7722  -16.3473 N   0  0  0  0  0  0  0  0  0  0  0  0
   -4.6157    5.3542  -17.4028 N   0  0  0  0  0  0  0  0  0  0  0  0
   -4.0228    5.2096  -18.7214 C   0  0  0  0  0  0  0  0  0  0  0  0
   -4.0793    6.4918  -19.4953 C   0  0  0  0  0  0  0  0  0  0  0  0
   -5.1063    6.9550  -20.2956 C   0  0  0  0  0  0  0  0  0  0  0  0
   -4.7930    8.1989  -20.9140 C   0  0  0  0  0  0  0  0  0  0  0  0
   -3.5437    8.6516  -20.5548 C   0  0  0  0  0  0  0  0  0  0  0  0
   -2.7513    7.5736  -19.4904 S   0  0  0  0  0  0  0  0  0  0  0  0
   -5.9062    5.0433  -17.0658 C   0  0  0  0  0  0  0  0  0  0  0  0
   -6.8690    4.5897  -17.8868 N   0  0  0  0  0  0  0  0  0  0  0  0
  1  2  1  0
  2  3  2  0
  3  4  1  0
  4  5  1  0
  5  6  2  0
  5  7  1  0
  7  8  1  0
  8  9  2  0
  9 10  1  0
 10 11  2  0
 11 12  1  0
 12 13  2  0
 12 14  1  0
 14 15  1  0
 15 16  1  0
 15 17  1  0
 17 18  1  0
 17 19  1  0
  4 20  2  0
 20 21  1  0
 21 22  2  0
 22 23  1  0
 23 24  1  0
 24 25  1  0
 25 26  2  0
 26 27  1  0
 27 28  2  0
 28 29  1  0
 23 30  1  0
 30 31  2  0
 31  2  1  0
 13  8  1  0
 30 20  1  0
 17 11  1  0
 29 25  1  0
M  END
>  <name>  (225) 
P115745

>  <alias>  (225) 
None

>  <smina_score_min>  (225) 
-8.214

>  <exports>  (225) 
['/opt/xchem-fragalysis-2/maxwin/BulkDock/OUTPUTS/openbind_xx01zvns2b_c2_elabs_1LOUTNY.sdf', '/opt/xchem-fragalysis-2/maxwin/BulkDock/OUTPUTS/openbind_xx01zvns2b_c2_elabs_1LSYIIV.sdf']

>  <tags>  (225) 
syndirella_placed,openbind_xx01zvns2b_c2_elabs,openbind_xx01zvns2b_c2_elabs_scored_6.2plus,syndirella_product,openbind_xx01zvns2b_c2_elabs_scored,openbind_xx01zvns2b_c2_elabs_scored_top80percent,BulkDock Fragalysis export

>  <subsites>  (225) 
1 - Z4590/B/203/1

>  <smiles>  (225) 
Cc1cc(C(=O)Nc2ccc3c(c2)CN(C)C3(C)C)c2cnn(Cc3cccs3)c2n1

>  <HIPPO Pose ID>  (225) 
115745

>  <energy_score>  (225) 
-60.451725

>  <inchikey>  (225) 
VZQABSABWOKNKD-UHFFFAOYSA-N

>  <gnina_score_min>  (225) 
6.276

>  <gnina_score>  (225) 
6.207

>  <ref_mols>  (225) 
Z3556a

>  <HIPPO Compound ID>  (225) 
178802

>  <distance_score>  (225) 
0.462499

>  <rmsd(smina/fragmenstein)>  (225) 
0.229

>  <ref_pdb>  (225) 
Z3556a

>  <inspiration_score>  (225) 
None

$$$$
P115748
     RDKit          3D

 31 35  0  0  0  0  0  0  0  0999 V2000
   -9.1059    3.9002  -18.5733 C   0  0  0  0  0  0  0  0  0  0  0  0
   -7.9395    4.3879  -17.7656 C   0  0  0  0  0  0  0  0  0  0  0  0
   -8.1215    4.5967  -16.4049 C   0  0  0  0  0  0  0  0  0  0  0  0
   -7.0498    5.1061  -15.6831 C   0  0  0  0  0  0  0  0  0  0  0  0
   -7.2426    5.6517  -14.3489 C   0  0  0  0  0  0  0  0  0  0  0  0
   -7.1208    6.8003  -14.2017 O   0  0  0  0  0  0  0  0  0  0  0  0
   -7.6032    4.5537  -13.3433 N   0  0  0  0  0  0  0  0  0  0  0  0
   -7.7913    4.6150  -11.9779 C   0  0  0  0  0  0  0  0  0  0  0  0
   -7.6812    5.8551  -11.3225 C   0  0  0  0  0  0  0  0  0  0  0  0
   -7.7874    5.9444   -9.9453 C   0  0  0  0  0  0  0  0  0  0  0  0
   -8.0006    4.7738   -9.2571 C   0  0  0  0  0  0  0  0  0  0  0  0
   -8.1409    3.5456   -9.9055 C   0  0  0  0  0  0  0  0  0  0  0  0
   -8.0453    3.4432  -11.2760 C   0  0  0  0  0  0  0  0  0  0  0  0
   -8.4404    2.4686   -8.9211 C   0  0  0  0  0  0  0  0  0  0  0  0
   -8.4107    3.1918   -7.6347 N   0  0  0  0  0  0  0  0  0  0  0  0
   -9.2741    2.8397   -6.6177 C   0  0  0  0  0  0  0  0  0  0  0  0
  -10.1005    1.7265   -6.7198 C   0  0  0  0  0  0  0  0  0  0  0  0
  -11.1421    1.5524   -5.8352 C   0  0  0  0  0  0  0  0  0  0  0  0
  -11.3133    2.4220   -4.7844 C   0  0  0  0  0  0  0  0  0  0  0  0
  -10.3710    3.4062   -4.5369 C   0  0  0  0  0  0  0  0  0  0  0  0
   -9.3616    3.6173   -5.4549 C   0  0  0  0  0  0  0  0  0  0  0  0
   -8.1449    4.6190   -7.7922 C   0  0  0  0  0  0  0  0  0  0  0  0
   -5.8207    5.3067  -16.3033 C   0  0  0  0  0  0  0  0  0  0  0  0
   -4.5299    5.7444  -15.9589 C   0  0  0  0  0  0  0  0  0  0  0  0
   -3.7262    5.8456  -17.0213 N   0  0  0  0  0  0  0  0  0  0  0  0
   -4.5524    5.5687  -18.0668 N   0  0  0  0  0  0  0  0  0  0  0  0
   -4.2374    6.0544  -19.4049 C   0  0  0  0  0  0  0  0  0  0  0  0
   -3.7998    4.9542  -20.3560 C   0  0  0  0  0  0  0  0  0  0  0  0
   -3.2095    7.1944  -19.4111 C   0  0  0  0  0  0  0  0  0  0  0  0
   -5.7832    5.1030  -17.6674 C   0  0  0  0  0  0  0  0  0  0  0  0
   -6.7919    4.6586  -18.4402 N   0  0  0  0  0  0  0  0  0  0  0  0
  1  2  1  0
  2  3  2  0
  3  4  1  0
  4  5  1  0
  5  6  2  0
  5  7  1  0
  7  8  1  0
  8  9  2  0
  9 10  1  0
 10 11  2  0
 11 12  1  0
 12 13  2  0
 12 14  1  0
 14 15  1  0
 15 16  1  0
 16 17  2  0
 17 18  1  0
 18 19  2  0
 19 20  1  0
 20 21  2  0
 15 22  1  0
  4 23  2  0
 23 24  1  0
 24 25  2  0
 25 26  1  0
 26 27  1  0
 27 28  1  0
 27 29  1  0
 26 30  1  0
 30 31  2  0
 31  2  1  0
 13  8  1  0
 21 16  1  0
 30 23  1  0
 22 11  1  0
M  END
>  <name>  (226) 
P115748

>  <alias>  (226) 
None

>  <smina_score_min>  (226) 
-9.277

>  <exports>  (226) 
['/opt/xchem-fragalysis-2/maxwin/BulkDock/OUTPUTS/openbind_xx01zvns2b_c2_elabs_1LOUTNY.sdf', '/opt/xchem-fragalysis-2/maxwin/BulkDock/OUTPUTS/openbind_xx01zvns2b_c2_elabs_1LSYIIV.sdf']

>  <tags>  (226) 
syndirella_placed,openbind_xx01zvns2b_c2_elabs,openbind_xx01zvns2b_c2_elabs_scored_6.2plus,syndirella_product,openbind_xx01zvns2b_c2_elabs_scored,openbind_xx01zvns2b_c2_elabs_scored_top80percent,BulkDock Fragalysis export

>  <subsites>  (226) 
1 - Z4590/B/203/1

>  <smiles>  (226) 
Cc1cc(C(=O)Nc2ccc3c(c2)CN(c2ccccc2)C3)c2cnn(C(C)C)c2n1

>  <HIPPO Pose ID>  (226) 
115748

>  <energy_score>  (226) 
-17.977848

>  <inchikey>  (226) 
UNFHOXVLQARESN-UHFFFAOYSA-N

>  <gnina_score_min>  (226) 
6.261

>  <gnina_score>  (226) 
6.141

>  <ref_mols>  (226) 
Z3556a

>  <HIPPO Compound ID>  (226) 
178808

>  <distance_score>  (226) 
0.922086

>  <rmsd(smina/fragmenstein)>  (226) 
0.854

>  <ref_pdb>  (226) 
Z3556a

>  <inspiration_score>  (226) 
None

$$$$
P115749
     RDKit          3D

 31 35  0  0  0  0  0  0  0  0999 V2000
  -10.7521    2.5896   -5.6560 C   0  0  0  0  0  0  0  0  0  0  0  0
   -9.3761    2.2192   -6.1708 C   0  0  0  0  0  0  0  0  0  0  0  0
   -9.0682    2.8678   -7.4115 N   0  0  0  0  0  0  0  0  0  0  0  0
   -8.8298    2.1194   -8.6336 C   0  0  0  0  0  0  0  0  0  0  0  0
   -8.5241    3.2107   -9.6003 C   0  0  0  0  0  0  0  0  0  0  0  0
   -8.3187    3.1530  -10.9657 C   0  0  0  0  0  0  0  0  0  0  0  0
   -8.0953    4.3578  -11.6369 C   0  0  0  0  0  0  0  0  0  0  0  0
   -7.8889    4.3444  -13.0098 N   0  0  0  0  0  0  0  0  0  0  0  0
   -7.5720    5.4901  -13.9827 C   0  0  0  0  0  0  0  0  0  0  0  0
   -7.5090    6.6399  -13.8017 O   0  0  0  0  0  0  0  0  0  0  0  0
   -7.2284    4.9985  -15.3143 C   0  0  0  0  0  0  0  0  0  0  0  0
   -8.2010    4.5821  -16.2125 C   0  0  0  0  0  0  0  0  0  0  0  0
   -7.8340    4.4359  -17.5462 C   0  0  0  0  0  0  0  0  0  0  0  0
   -8.8752    3.9836  -18.5332 C   0  0  0  0  0  0  0  0  0  0  0  0
   -6.6013    4.7292  -18.0386 N   0  0  0  0  0  0  0  0  0  0  0  0
   -5.6823    5.0498  -17.1071 C   0  0  0  0  0  0  0  0  0  0  0  0
   -5.9130    5.1576  -15.7472 C   0  0  0  0  0  0  0  0  0  0  0  0
   -4.6683    5.4741  -15.1801 C   0  0  0  0  0  0  0  0  0  0  0  0
   -3.7032    5.5735  -16.0936 N   0  0  0  0  0  0  0  0  0  0  0  0
   -4.3682    5.4333  -17.2812 N   0  0  0  0  0  0  0  0  0  0  0  0
   -3.8037    6.1700  -18.4057 C   0  0  0  0  0  0  0  0  0  0  0  0
   -3.9184    5.5878  -19.7631 C   0  0  0  0  0  0  0  0  0  0  0  0
   -5.0152    5.5937  -20.5963 C   0  0  0  0  0  0  0  0  0  0  0  0
   -4.6962    5.1617  -21.9077 C   0  0  0  0  0  0  0  0  0  0  0  0
   -3.3741    4.7995  -22.0269 C   0  0  0  0  0  0  0  0  0  0  0  0
   -2.5256    4.9891  -20.5582 S   0  0  0  0  0  0  0  0  0  0  0  0
   -8.0619    5.5847  -10.9398 C   0  0  0  0  0  0  0  0  0  0  0  0
   -8.2447    5.6329   -9.5625 C   0  0  0  0  0  0  0  0  0  0  0  0
   -8.4761    4.4344   -8.9295 C   0  0  0  0  0  0  0  0  0  0  0  0
   -8.7730    4.2066   -7.5184 C   0  0  0  0  0  0  0  0  0  0  0  0
   -8.7669    5.0666   -6.6575 O   0  0  0  0  0  0  0  0  0  0  0  0
  1  2  1  0
  2  3  1  0
  3  4  1  0
  4  5  1  0
  5  6  2  0
  6  7  1  0
  7  8  1  0
  8  9  1  0
  9 10  2  0
  9 11  1  0
 11 12  2  0
 12 13  1  0
 13 14  1  0
 13 15  2  0
 15 16  1  0
 16 17  2  0
 17 18  1  0
 18 19  2  0
 19 20  1  0
 20 21  1  0
 21 22  1  0
 22 23  2  0
 23 24  1  0
 24 25  2  0
 25 26  1  0
  7 27  2  0
 27 28  1  0
 28 29  2  0
 29 30  1  0
 30 31  2  0
 30  3  1  0
 29  5  1  0
 17 11  1  0
 26 22  1  0
 20 16  1  0
M  END
>  <name>  (227) 
P115749

>  <alias>  (227) 
None

>  <smina_score_min>  (227) 
-8.867

>  <exports>  (227) 
['/opt/xchem-fragalysis-2/maxwin/BulkDock/OUTPUTS/openbind_xx01zvns2b_c2_elabs_1LOUTNY.sdf', '/opt/xchem-fragalysis-2/maxwin/BulkDock/OUTPUTS/openbind_xx01zvns2b_c2_elabs_1LSYIIV.sdf']

>  <tags>  (227) 
syndirella_placed,openbind_xx01zvns2b_c2_elabs,openbind_xx01zvns2b_c2_elabs_scored_6.2plus,syndirella_product,openbind_xx01zvns2b_c2_elabs_scored,openbind_xx01zvns2b_c2_elabs_scored_top80percent,BulkDock Fragalysis export

>  <subsites>  (227) 
1 - Z4590/B/203/1

>  <smiles>  (227) 
CCN1Cc2cc(NC(=O)c3cc(C)nc4c3cnn4Cc3cccs3)ccc2C1=O

>  <HIPPO Pose ID>  (227) 
115749

>  <energy_score>  (227) 
-17.624744

>  <inchikey>  (227) 
WCWICFJKFLFZEZ-UHFFFAOYSA-N

>  <gnina_score_min>  (227) 
6.28

>  <gnina_score>  (227) 
6.181

>  <ref_mols>  (227) 
Z3556a

>  <HIPPO Compound ID>  (227) 
178810

>  <distance_score>  (227) 
0.590182

>  <rmsd(smina/fragmenstein)>  (227) 
0.43

>  <ref_pdb>  (227) 
Z3556a

>  <inspiration_score>  (227) 
None

$$$$
P115762
     RDKit          3D

 31 35  0  0  0  0  0  0  0  0999 V2000
   -2.5014    8.0171  -19.2907 C   0  0  0  0  0  0  0  0  0  0  0  0
   -3.4047    6.8967  -19.7885 C   0  0  0  0  0  0  0  0  0  0  0  0
   -3.2556    5.5496  -19.0549 C   0  0  1  0  0  0  0  0  0  0  0  0
   -1.8423    4.9746  -19.1373 C   0  0  0  0  0  0  0  0  0  0  0  0
   -3.7691    5.6080  -17.6911 N   0  0  0  0  0  0  0  0  0  0  0  0
   -3.0028    6.0451  -16.6610 N   0  0  0  0  0  0  0  0  0  0  0  0
   -3.8497    6.0440  -15.6243 C   0  0  0  0  0  0  0  0  0  0  0  0
   -5.1370    5.5817  -15.9669 C   0  0  0  0  0  0  0  0  0  0  0  0
   -6.3787    5.3779  -15.3561 C   0  0  0  0  0  0  0  0  0  0  0  0
   -6.5753    5.8409  -13.9695 C   0  0  0  0  0  0  0  0  0  0  0  0
   -6.2374    6.9754  -13.7776 O   0  0  0  0  0  0  0  0  0  0  0  0
   -7.1531    4.8690  -13.0815 N   0  0  0  0  0  0  0  0  0  0  0  0
   -7.4109    4.9212  -11.7064 C   0  0  0  0  0  0  0  0  0  0  0  0
   -7.1689    6.1141  -10.9955 C   0  0  0  0  0  0  0  0  0  0  0  0
   -7.4497    6.2129   -9.6343 C   0  0  0  0  0  0  0  0  0  0  0  0
   -7.9589    5.0973   -9.0158 C   0  0  0  0  0  0  0  0  0  0  0  0
   -8.1935    3.9391   -9.6782 C   0  0  0  0  0  0  0  0  0  0  0  0
   -7.9354    3.8075  -11.0346 C   0  0  0  0  0  0  0  0  0  0  0  0
   -8.8768    3.1258   -8.6486 C   0  0  0  0  0  0  0  0  0  0  0  0
   -8.5218    3.4200   -7.1738 N   0  0  0  0  0  0  0  0  0  0  0  0
   -9.3110    3.3234   -5.9905 C   0  0  0  0  0  0  0  0  0  0  0  0
   -8.4578    3.6851   -4.7934 C   0  0  0  0  0  0  0  0  0  0  0  0
  -10.4795    3.0762   -5.8472 O   0  0  0  0  0  0  0  0  0  0  0  0
   -8.5212    4.8553   -7.6816 C   0  0  0  0  0  0  0  0  0  0  0  0
   -7.4295    4.8932  -16.1442 C   0  0  0  0  0  0  0  0  0  0  0  0
   -7.2231    4.6427  -17.5105 C   0  0  0  0  0  0  0  0  0  0  0  0
   -8.2910    4.0876  -18.4238 C   0  0  0  0  0  0  0  0  0  0  0  0
   -9.2322    3.0297  -17.9262 C   0  0  0  0  0  0  0  0  0  0  0  0
   -9.7590    4.3778  -18.2826 C   0  0  0  0  0  0  0  0  0  0  0  0
   -6.0320    4.8656  -18.1126 N   0  0  0  0  0  0  0  0  0  0  0  0
   -5.0518    5.3082  -17.3157 C   0  0  0  0  0  0  0  0  0  0  0  0
  1  2  1  0
  2  3  1  0
  3  4  1  1
  3  5  1  0
  5  6  1  0
  6  7  2  0
  7  8  1  0
  8  9  2  0
  9 10  1  0
 10 11  2  0
 10 12  1  0
 12 13  1  0
 13 14  2  0
 14 15  1  0
 15 16  2  0
 16 17  1  0
 17 18  2  0
 17 19  1  0
 19 20  1  0
 20 21  1  0
 21 22  1  0
 21 23  2  0
 20 24  1  0
  9 25  1  0
 25 26  2  0
 26 27  1  0
 27 28  1  0
 28 29  1  0
 26 30  1  0
 30 31  2  0
 31  5  1  0
 31  8  1  0
 18 13  1  0
 29 27  1  0
 24 16  1  0
M  END
>  <name>  (228) 
P115762

>  <alias>  (228) 
None

>  <smina_score_min>  (228) 
-7.677

>  <exports>  (228) 
['/opt/xchem-fragalysis-2/maxwin/BulkDock/OUTPUTS/openbind_xx01zvns2b_c2_elabs_1LOUTNY.sdf', '/opt/xchem-fragalysis-2/maxwin/BulkDock/OUTPUTS/openbind_xx01zvns2b_c2_elabs_1LSYIIV.sdf']

>  <tags>  (228) 
syndirella_placed,openbind_xx01zvns2b_c2_elabs,openbind_xx01zvns2b_c2_elabs_scored_6.2plus,syndirella_product,openbind_xx01zvns2b_c2_elabs_scored,openbind_xx01zvns2b_c2_elabs_scored_top80percent,BulkDock Fragalysis export

>  <subsites>  (228) 
1 - Z4590/B/203/1

>  <smiles>  (228) 
CC[C@@H](C)n1ncc2c(C(=O)Nc3ccc4c(c3)CN(C(C)=O)C4)cc(C3CC3)nc21

>  <HIPPO Pose ID>  (228) 
115762

>  <energy_score>  (228) 
-1.057476

>  <inchikey>  (228) 
ZIGAHGNEKMZXPD-CQSZACIVSA-N

>  <gnina_score_min>  (228) 
6.281

>  <gnina_score>  (228) 
6.26

>  <ref_mols>  (228) 
Z3556a

>  <HIPPO Compound ID>  (228) 
178824

>  <distance_score>  (228) 
1.193862

>  <rmsd(smina/fragmenstein)>  (228) 
0.458

>  <ref_pdb>  (228) 
Z3556a

>  <inspiration_score>  (228) 
None

$$$$
P115767
     RDKit          3D

 31 34  0  0  0  0  0  0  0  0999 V2000
   -2.4401    5.1500  -20.7613 C   0  0  0  0  0  0  0  0  0  0  0  0
   -2.7690    5.0720  -19.2783 C   0  0  0  0  0  0  0  0  0  0  0  0
   -4.2562    5.3282  -19.0378 C   0  0  0  0  0  0  0  0  0  0  0  0
   -4.6771    5.2437  -17.6536 N   0  0  0  0  0  0  0  0  0  0  0  0
   -3.8643    5.6532  -16.6525 N   0  0  0  0  0  0  0  0  0  0  0  0
   -4.6443    5.5913  -15.5619 C   0  0  0  0  0  0  0  0  0  0  0  0
   -4.0938    5.9882  -14.2417 C   0  0  0  0  0  0  0  0  0  0  0  0
   -5.9558    5.1356  -15.8685 C   0  0  0  0  0  0  0  0  0  0  0  0
   -7.1816    4.9281  -15.2151 C   0  0  0  0  0  0  0  0  0  0  0  0
   -7.3774    5.5178  -13.8840 C   0  0  0  0  0  0  0  0  0  0  0  0
   -7.1735    6.6683  -13.8201 O   0  0  0  0  0  0  0  0  0  0  0  0
   -7.7533    4.5007  -12.7755 N   0  0  0  0  0  0  0  0  0  0  0  0
   -8.0399    4.6986  -11.4201 C   0  0  0  0  0  0  0  0  0  0  0  0
   -7.9919    6.0225  -10.9469 C   0  0  0  0  0  0  0  0  0  0  0  0
   -8.2078    6.3256   -9.6138 C   0  0  0  0  0  0  0  0  0  0  0  0
   -8.4759    5.2844   -8.7571 C   0  0  0  0  0  0  0  0  0  0  0  0
   -8.5522    3.9651   -9.1885 C   0  0  0  0  0  0  0  0  0  0  0  0
   -8.3350    3.6475  -10.5336 C   0  0  0  0  0  0  0  0  0  0  0  0
   -8.9252    3.1181   -8.0019 C   0  0  0  0  0  0  0  0  0  0  0  0
   -8.9112    4.0363   -6.7852 N   0  0  0  0  0  0  0  0  0  0  0  0
   -7.7923    3.6967   -5.9027 C   0  0  0  0  0  0  0  0  0  0  0  0
   -7.3896    4.5971   -4.7112 C   0  0  0  0  0  0  0  0  0  0  0  0
   -8.4341    5.0717   -3.6932 C   0  0  0  0  0  0  0  0  0  0  0  0
   -9.1213    6.3704   -4.1081 C   0  0  0  0  0  0  0  0  0  0  0  0
   -9.4503    4.0040   -3.3277 C   0  0  0  0  0  0  0  0  0  0  0  0
   -8.7448    5.4016   -7.3046 C   0  0  0  0  0  0  0  0  0  0  0  0
   -8.2680    4.4609  -15.9568 C   0  0  0  0  0  0  0  0  0  0  0  0
   -8.1123    4.2826  -17.3319 C   0  0  0  0  0  0  0  0  0  0  0  0
   -9.2847    3.8603  -18.1706 C   0  0  0  0  0  0  0  0  0  0  0  0
   -6.9573    4.4968  -18.0018 N   0  0  0  0  0  0  0  0  0  0  0  0
   -5.9355    4.9091  -17.2322 C   0  0  0  0  0  0  0  0  0  0  0  0
  1  2  1  0
  2  3  1  0
  3  4  1  0
  4  5  1  0
  5  6  2  0
  6  7  1  0
  6  8  1  0
  8  9  2  0
  9 10  1  0
 10 11  2  0
 10 12  1  0
 12 13  1  0
 13 14  2  0
 14 15  1  0
 15 16  2  0
 16 17  1  0
 17 18  2  0
 17 19  1  0
 19 20  1  0
 20 21  1  0
 21 22  1  0
 22 23  1  0
 23 24  1  0
 23 25  1  0
 20 26  1  0
  9 27  1  0
 27 28  2  0
 28 29  1  0
 28 30  1  0
 30 31  2  0
 31  4  1  0
 31  8  1  0
 18 13  1  0
 26 16  1  0
M  END
>  <name>  (229) 
P115767

>  <alias>  (229) 
None

>  <smina_score_min>  (229) 
-7.3

>  <exports>  (229) 
['/opt/xchem-fragalysis-2/maxwin/BulkDock/OUTPUTS/openbind_xx01zvns2b_c2_elabs_1LOUTNY.sdf', '/opt/xchem-fragalysis-2/maxwin/BulkDock/OUTPUTS/openbind_xx01zvns2b_c2_elabs_1LSYIIV.sdf']

>  <tags>  (229) 
syndirella_placed,openbind_xx01zvns2b_c2_elabs,openbind_xx01zvns2b_c2_elabs_scored_6.2plus,syndirella_product,openbind_xx01zvns2b_c2_elabs_scored,openbind_xx01zvns2b_c2_elabs_scored_top80percent,BulkDock Fragalysis export

>  <subsites>  (229) 
1 - Z4590/B/203/1

>  <smiles>  (229) 
CCCn1nc(C)c2c(C(=O)Nc3ccc4c(c3)CN(CCC(C)C)C4)cc(C)nc21

>  <HIPPO Pose ID>  (229) 
115767

>  <energy_score>  (229) 
-49.326521

>  <inchikey>  (229) 
QEPQXCRZUMKGTK-UHFFFAOYSA-N

>  <gnina_score_min>  (229) 
6.203

>  <gnina_score>  (229) 
6.204

>  <ref_mols>  (229) 
Z3556a

>  <HIPPO Compound ID>  (229) 
178829

>  <distance_score>  (229) 
0.841261

>  <rmsd(smina/fragmenstein)>  (229) 
0.347

>  <ref_pdb>  (229) 
Z3556a

>  <inspiration_score>  (229) 
None

$$$$
P115770
     RDKit          3D

 31 34  0  0  0  0  0  0  0  0999 V2000
   -3.7792    6.5302  -21.2320 C   0  0  0  0  0  0  0  0  0  0  0  0
   -4.2376    6.5979  -19.7845 C   0  0  0  0  0  0  0  0  0  0  0  0
   -4.1648    5.2279  -19.1158 C   0  0  0  0  0  0  0  0  0  0  0  0
   -4.6567    5.2593  -17.7550 N   0  0  0  0  0  0  0  0  0  0  0  0
   -3.8533    5.6816  -16.7519 N   0  0  0  0  0  0  0  0  0  0  0  0
   -4.6520    5.6506  -15.6733 C   0  0  0  0  0  0  0  0  0  0  0  0
   -4.1247    6.0700  -14.3511 C   0  0  0  0  0  0  0  0  0  0  0  0
   -5.9581    5.1917  -15.9939 C   0  0  0  0  0  0  0  0  0  0  0  0
   -7.1874    4.9819  -15.3595 C   0  0  0  0  0  0  0  0  0  0  0  0
   -7.4047    5.5290  -14.0208 C   0  0  0  0  0  0  0  0  0  0  0  0
   -7.2944    6.6865  -13.9089 O   0  0  0  0  0  0  0  0  0  0  0  0
   -7.7297    4.4473  -12.9666 N   0  0  0  0  0  0  0  0  0  0  0  0
   -8.0684    4.5685  -11.6210 C   0  0  0  0  0  0  0  0  0  0  0  0
   -8.2055    5.8704  -11.0957 C   0  0  0  0  0  0  0  0  0  0  0  0
   -8.5182    6.0795   -9.7640 C   0  0  0  0  0  0  0  0  0  0  0  0
   -8.6840    4.9580   -8.9893 C   0  0  0  0  0  0  0  0  0  0  0  0
   -8.5319    3.6558   -9.4584 C   0  0  0  0  0  0  0  0  0  0  0  0
   -8.2394    3.4400  -10.8006 C   0  0  0  0  0  0  0  0  0  0  0  0
   -8.6796    2.7079   -8.3065 C   0  0  0  0  0  0  0  0  0  0  0  0
   -8.8786    3.6147   -7.1613 N   0  0  0  0  0  0  0  0  0  0  0  0
   -8.3130    3.3814   -5.8392 C   0  0  0  0  0  0  0  0  0  0  0  0
   -7.0309    4.2247   -5.6104 C   0  0  0  0  0  0  0  0  0  0  0  0
   -6.2443    3.8357   -4.4772 O   0  0  0  0  0  0  0  0  0  0  0  0
   -6.7442    4.4245   -3.2789 C   0  0  0  0  0  0  0  0  0  0  0  0
   -8.9629    4.9336   -7.5635 C   0  0  0  0  0  0  0  0  0  0  0  0
   -9.1199    5.9250   -6.8737 O   0  0  0  0  0  0  0  0  0  0  0  0
   -8.2644    4.4956  -16.0997 C   0  0  0  0  0  0  0  0  0  0  0  0
   -8.0943    4.2985  -17.4670 C   0  0  0  0  0  0  0  0  0  0  0  0
   -9.2643    3.8628  -18.3005 C   0  0  0  0  0  0  0  0  0  0  0  0
   -6.9323    4.5063  -18.1273 N   0  0  0  0  0  0  0  0  0  0  0  0
   -5.9217    4.9391  -17.3521 C   0  0  0  0  0  0  0  0  0  0  0  0
  1  2  1  0
  2  3  1  0
  3  4  1  0
  4  5  1  0
  5  6  2  0
  6  7  1  0
  6  8  1  0
  8  9  2  0
  9 10  1  0
 10 11  2  0
 10 12  1  0
 12 13  1  0
 13 14  2  0
 14 15  1  0
 15 16  2  0
 16 17  1  0
 17 18  2  0
 17 19  1  0
 19 20  1  0
 20 21  1  0
 21 22  1  0
 22 23  1  0
 23 24  1  0
 20 25  1  0
 25 26  2  0
  9 27  1  0
 27 28  2  0
 28 29  1  0
 28 30  1  0
 30 31  2  0
 31  4  1  0
 31  8  1  0
 18 13  1  0
 25 16  1  0
M  END
>  <name>  (230) 
P115770

>  <alias>  (230) 
None

>  <smina_score_min>  (230) 
-6.819

>  <exports>  (230) 
['/opt/xchem-fragalysis-2/maxwin/BulkDock/OUTPUTS/openbind_xx01zvns2b_c2_elabs_1LOUTNY.sdf', '/opt/xchem-fragalysis-2/maxwin/BulkDock/OUTPUTS/openbind_xx01zvns2b_c2_elabs_1LSYIIV.sdf']

>  <tags>  (230) 
syndirella_placed,openbind_xx01zvns2b_c2_elabs,openbind_xx01zvns2b_c2_elabs_scored_6.2plus,syndirella_product,openbind_xx01zvns2b_c2_elabs_scored,openbind_xx01zvns2b_c2_elabs_scored_top80percent,BulkDock Fragalysis export

>  <subsites>  (230) 
1 - Z4590/B/203/1

>  <smiles>  (230) 
CCCn1nc(C)c2c(C(=O)Nc3ccc4c(c3)CN(CCOC)C4=O)cc(C)nc21

>  <HIPPO Pose ID>  (230) 
115770

>  <energy_score>  (230) 
-17.201381

>  <inchikey>  (230) 
OOWZCCFDCJMZFF-UHFFFAOYSA-N

>  <gnina_score_min>  (230) 
6.223

>  <gnina_score>  (230) 
6.135

>  <ref_mols>  (230) 
Z3556a

>  <HIPPO Compound ID>  (230) 
178833

>  <distance_score>  (230) 
0.703887

>  <rmsd(smina/fragmenstein)>  (230) 
0.908

>  <ref_pdb>  (230) 
Z3556a

>  <inspiration_score>  (230) 
None

$$$$
P115773
     RDKit          3D

 31 34  0  0  0  0  0  0  0  0999 V2000
   -5.1602    7.3240  -19.9320 C   0  0  0  0  0  0  0  0  0  0  0  0
   -3.8574    6.5915  -19.6424 C   0  0  0  0  0  0  0  0  0  0  0  0
   -4.0748    5.2085  -19.0277 C   0  0  0  0  0  0  0  0  0  0  0  0
   -4.6255    5.2526  -17.6902 N   0  0  0  0  0  0  0  0  0  0  0  0
   -3.8508    5.6542  -16.6553 N   0  0  0  0  0  0  0  0  0  0  0  0
   -4.6936    5.6538  -15.6105 C   0  0  0  0  0  0  0  0  0  0  0  0
   -4.2131    6.0778  -14.2717 C   0  0  0  0  0  0  0  0  0  0  0  0
   -5.9928    5.2124  -15.9779 C   0  0  0  0  0  0  0  0  0  0  0  0
   -7.2473    5.0220  -15.3877 C   0  0  0  0  0  0  0  0  0  0  0  0
   -7.4977    5.5574  -14.0496 C   0  0  0  0  0  0  0  0  0  0  0  0
   -7.3945    6.7128  -13.9166 O   0  0  0  0  0  0  0  0  0  0  0  0
   -7.8647    4.4614  -13.0269 N   0  0  0  0  0  0  0  0  0  0  0  0
   -8.0811    4.5416  -11.6545 C   0  0  0  0  0  0  0  0  0  0  0  0
   -7.9584    5.7958  -11.0271 C   0  0  0  0  0  0  0  0  0  0  0  0
   -8.1061    5.9328   -9.6548 C   0  0  0  0  0  0  0  0  0  0  0  0
   -8.3742    4.7948   -8.9307 C   0  0  0  0  0  0  0  0  0  0  0  0
   -8.5291    3.5440   -9.5359 C   0  0  0  0  0  0  0  0  0  0  0  0
   -8.3841    3.3969  -10.9078 C   0  0  0  0  0  0  0  0  0  0  0  0
   -8.8733    2.5393   -8.4748 C   0  0  0  0  0  0  0  0  0  0  0  0
   -8.5640    3.2471   -7.2197 N   0  0  0  0  0  0  0  0  0  0  0  0
   -9.3214    2.8394   -6.0371 C   0  0  0  0  0  0  0  0  0  0  0  0
   -8.8675    3.5267   -4.7290 C   0  0  0  0  0  0  0  0  0  0  0  0
   -9.1258    4.8648   -4.7786 F   0  0  0  0  0  0  0  0  0  0  0  0
   -9.5347    3.0764   -3.6468 F   0  0  0  0  0  0  0  0  0  0  0  0
   -7.5420    3.3994   -4.4829 F   0  0  0  0  0  0  0  0  0  0  0  0
   -8.5609    4.6845   -7.4628 C   0  0  0  0  0  0  0  0  0  0  0  0
   -8.2970    4.5288  -16.1585 C   0  0  0  0  0  0  0  0  0  0  0  0
   -8.0776    4.3107  -17.5147 C   0  0  0  0  0  0  0  0  0  0  0  0
   -9.2226    3.8663  -18.3777 C   0  0  0  0  0  0  0  0  0  0  0  0
   -6.8917    4.5065  -18.1365 N   0  0  0  0  0  0  0  0  0  0  0  0
   -5.9069    4.9434  -17.3311 C   0  0  0  0  0  0  0  0  0  0  0  0
  1  2  1  0
  2  3  1  0
  3  4  1  0
  4  5  1  0
  5  6  2  0
  6  7  1  0
  6  8  1  0
  8  9  2  0
  9 10  1  0
 10 11  2  0
 10 12  1  0
 12 13  1  0
 13 14  2  0
 14 15  1  0
 15 16  2  0
 16 17  1  0
 17 18  2  0
 17 19  1  0
 19 20  1  0
 20 21  1  0
 21 22  1  0
 22 23  1  0
 22 24  1  0
 22 25  1  0
 20 26  1  0
  9 27  1  0
 27 28  2  0
 28 29  1  0
 28 30  1  0
 30 31  2  0
 31  4  1  0
 31  8  1  0
 18 13  1  0
 26 16  1  0
M  END
>  <name>  (231) 
P115773

>  <alias>  (231) 
None

>  <smina_score_min>  (231) 
-8.188

>  <exports>  (231) 
['/opt/xchem-fragalysis-2/maxwin/BulkDock/OUTPUTS/openbind_xx01zvns2b_c2_elabs_1LOUTNY.sdf', '/opt/xchem-fragalysis-2/maxwin/BulkDock/OUTPUTS/openbind_xx01zvns2b_c2_elabs_1LSYIIV.sdf']

>  <tags>  (231) 
syndirella_placed,openbind_xx01zvns2b_c2_elabs,openbind_xx01zvns2b_c2_elabs_scored_6.2plus,syndirella_product,openbind_xx01zvns2b_c2_elabs_scored,openbind_xx01zvns2b_c2_elabs_scored_top80percent,BulkDock Fragalysis export

>  <subsites>  (231) 
1 - Z4590/B/203/1

>  <smiles>  (231) 
CCCn1nc(C)c2c(C(=O)Nc3ccc4c(c3)CN(CC(F)(F)F)C4)cc(C)nc21

>  <HIPPO Pose ID>  (231) 
115773

>  <energy_score>  (231) 
-48.53785

>  <inchikey>  (231) 
MKIOCPGVQBRGFC-UHFFFAOYSA-N

>  <gnina_score_min>  (231) 
6.301

>  <gnina_score>  (231) 
6.189

>  <ref_mols>  (231) 
Z3556a

>  <HIPPO Compound ID>  (231) 
178835

>  <distance_score>  (231) 
0.622745

>  <rmsd(smina/fragmenstein)>  (231) 
0.537

>  <ref_pdb>  (231) 
Z3556a

>  <inspiration_score>  (231) 
None

$$$$
P115774
     RDKit          3D

 31 34  0  0  0  0  0  0  0  0999 V2000
   -6.5176    4.3756   -3.8583 C   0  0  0  0  0  0  0  0  0  0  0  0
   -6.9212    5.6339   -4.6028 C   0  0  0  0  0  0  0  0  0  0  0  0
   -6.2437    5.8010   -5.9665 C   0  0  0  0  0  0  0  0  0  0  0  0
   -6.5257    4.7131   -7.0270 C   0  0  0  0  0  0  0  0  0  0  0  0
   -7.9155    4.2116   -7.0777 N   0  0  0  0  0  0  0  0  0  0  0  0
   -8.7827    5.3231   -7.5087 C   0  0  0  0  0  0  0  0  0  0  0  0
   -8.6570    5.3112   -8.9945 C   0  0  0  0  0  0  0  0  0  0  0  0
   -8.7013    6.3634   -9.8725 C   0  0  0  0  0  0  0  0  0  0  0  0
   -8.4338    6.0862  -11.2072 C   0  0  0  0  0  0  0  0  0  0  0  0
   -8.1664    4.7746  -11.6536 C   0  0  0  0  0  0  0  0  0  0  0  0
   -7.8597    4.5842  -12.9950 N   0  0  0  0  0  0  0  0  0  0  0  0
   -7.6183    5.6042  -14.1182 C   0  0  0  0  0  0  0  0  0  0  0  0
   -7.7131    6.7660  -14.1174 O   0  0  0  0  0  0  0  0  0  0  0  0
   -7.2481    4.9907  -15.3920 C   0  0  0  0  0  0  0  0  0  0  0  0
   -8.2433    4.4855  -16.2210 C   0  0  0  0  0  0  0  0  0  0  0  0
   -7.9550    4.3314  -17.5722 C   0  0  0  0  0  0  0  0  0  0  0  0
   -9.0511    3.8717  -18.4906 C   0  0  0  0  0  0  0  0  0  0  0  0
   -6.7670    4.6499  -18.1472 N   0  0  0  0  0  0  0  0  0  0  0  0
   -5.8326    5.1017  -17.2867 C   0  0  0  0  0  0  0  0  0  0  0  0
   -5.9797    5.2556  -15.9186 C   0  0  0  0  0  0  0  0  0  0  0  0
   -4.7336    5.7473  -15.4639 C   0  0  0  0  0  0  0  0  0  0  0  0
   -4.3313    6.0807  -14.0751 C   0  0  0  0  0  0  0  0  0  0  0  0
   -3.8699    5.9183  -16.4714 N   0  0  0  0  0  0  0  0  0  0  0  0
   -4.5940    5.6293  -17.5852 N   0  0  0  0  0  0  0  0  0  0  0  0
   -4.1318    6.1138  -18.8980 C   0  0  0  0  0  0  0  0  0  0  0  0
   -5.1332    7.1478  -19.4589 C   0  0  0  0  0  0  0  0  0  0  0  0
   -2.7565    6.8229  -18.7958 C   0  0  0  0  0  0  0  0  0  0  0  0
   -3.9712    4.9663  -19.8936 C   0  0  0  0  0  0  0  0  0  0  0  0
   -8.1472    3.7096  -10.7566 C   0  0  0  0  0  0  0  0  0  0  0  0
   -8.3442    4.0202   -9.4204 C   0  0  0  0  0  0  0  0  0  0  0  0
   -8.1047    3.1974   -8.1933 C   0  0  0  0  0  0  0  0  0  0  0  0
  1  2  1  0
  2  3  1  0
  3  4  1  0
  4  5  1  0
  5  6  1  0
  6  7  1  0
  7  8  2  0
  8  9  1  0
  9 10  2  0
 10 11  1  0
 11 12  1  0
 12 13  2  0
 12 14  1  0
 14 15  2  0
 15 16  1  0
 16 17  1  0
 16 18  2  0
 18 19  1  0
 19 20  2  0
 20 21  1  0
 21 22  1  0
 21 23  2  0
 23 24  1  0
 24 25  1  0
 25 26  1  0
 25 27  1  0
 25 28  1  0
 10 29  1  0
 29 30  2  0
 30 31  1  0
 31  5  1  0
 30  7  1  0
 20 14  1  0
 24 19  1  0
M  END
>  <name>  (232) 
P115774

>  <alias>  (232) 
None

>  <smina_score_min>  (232) 
-7.377

>  <exports>  (232) 
['/opt/xchem-fragalysis-2/maxwin/BulkDock/OUTPUTS/openbind_xx01zvns2b_c2_elabs_1LOUTNY.sdf', '/opt/xchem-fragalysis-2/maxwin/BulkDock/OUTPUTS/openbind_xx01zvns2b_c2_elabs_1LSYIIV.sdf']

>  <tags>  (232) 
syndirella_placed,openbind_xx01zvns2b_c2_elabs,openbind_xx01zvns2b_c2_elabs_scored_6.2plus,syndirella_product,openbind_xx01zvns2b_c2_elabs_scored,openbind_xx01zvns2b_c2_elabs_scored_top80percent,BulkDock Fragalysis export

>  <subsites>  (232) 
1 - Z4590/B/203/1

>  <smiles>  (232) 
CCCCN1Cc2ccc(NC(=O)c3cc(C)nc4c3c(C)nn4C(C)(C)C)cc2C1

>  <HIPPO Pose ID>  (232) 
115774

>  <energy_score>  (232) 
-13.533297

>  <inchikey>  (232) 
PCVMRWYUPQNPBK-UHFFFAOYSA-N

>  <gnina_score_min>  (232) 
6.444

>  <gnina_score>  (232) 
6.415

>  <ref_mols>  (232) 
Z3556a

>  <HIPPO Compound ID>  (232) 
178836

>  <distance_score>  (232) 
1.004652

>  <rmsd(smina/fragmenstein)>  (232) 
0.846

>  <ref_pdb>  (232) 
Z3556a

>  <inspiration_score>  (232) 
None

$$$$
P115775
     RDKit          3D

 31 34  0  0  0  0  0  0  0  0999 V2000
   -9.1436    3.8780  -18.4084 C   0  0  0  0  0  0  0  0  0  0  0  0
   -8.0139    4.3400  -17.5326 C   0  0  0  0  0  0  0  0  0  0  0  0
   -8.2458    4.5152  -16.1737 C   0  0  0  0  0  0  0  0  0  0  0  0
   -7.2082    5.0090  -15.3908 C   0  0  0  0  0  0  0  0  0  0  0  0
   -7.4782    5.5473  -14.0562 C   0  0  0  0  0  0  0  0  0  0  0  0
   -7.3316    6.6978  -13.9191 O   0  0  0  0  0  0  0  0  0  0  0  0
   -7.8939    4.4637  -13.0396 N   0  0  0  0  0  0  0  0  0  0  0  0
   -8.1169    4.5486  -11.6678 C   0  0  0  0  0  0  0  0  0  0  0  0
   -8.0517    5.8174  -11.0600 C   0  0  0  0  0  0  0  0  0  0  0  0
   -8.1944    5.9698   -9.6894 C   0  0  0  0  0  0  0  0  0  0  0  0
   -8.4079    4.8326   -8.9470 C   0  0  0  0  0  0  0  0  0  0  0  0
   -8.5133    3.5672   -9.5323 C   0  0  0  0  0  0  0  0  0  0  0  0
   -8.3666    3.4037  -10.9027 C   0  0  0  0  0  0  0  0  0  0  0  0
   -8.8089    2.5652   -8.4534 C   0  0  0  0  0  0  0  0  0  0  0  0
   -8.5297    3.3087   -7.2073 N   0  0  0  0  0  0  0  0  0  0  0  0
   -9.2716    2.8829   -6.0285 C   0  0  0  0  0  0  0  0  0  0  0  0
   -8.8263    3.6114   -4.7458 C   0  0  0  0  0  0  0  0  0  0  0  0
   -9.5764    3.2395   -3.6807 F   0  0  0  0  0  0  0  0  0  0  0  0
   -7.5297    3.3634   -4.4276 F   0  0  0  0  0  0  0  0  0  0  0  0
   -8.5749    4.7375   -7.4771 C   0  0  0  0  0  0  0  0  0  0  0  0
   -5.9523    5.2339  -15.9698 C   0  0  0  0  0  0  0  0  0  0  0  0
   -4.6684    5.6712  -15.5639 C   0  0  0  0  0  0  0  0  0  0  0  0
   -4.1999    6.0109  -14.1972 C   0  0  0  0  0  0  0  0  0  0  0  0
   -3.8244    5.7637  -16.5979 N   0  0  0  0  0  0  0  0  0  0  0  0
   -4.5795    5.4309  -17.6822 N   0  0  0  0  0  0  0  0  0  0  0  0
   -3.9991    5.6592  -19.0168 C   0  0  0  0  0  0  0  0  0  0  0  0
   -3.7328    7.1744  -19.1853 C   0  0  0  0  0  0  0  0  0  0  0  0
   -4.9075    5.2405  -20.1898 C   0  0  0  0  0  0  0  0  0  0  0  0
   -2.6533    4.9141  -19.1371 C   0  0  0  0  0  0  0  0  0  0  0  0
   -5.8529    5.0390  -17.3373 C   0  0  0  0  0  0  0  0  0  0  0  0
   -6.8385    4.6112  -18.1490 N   0  0  0  0  0  0  0  0  0  0  0  0
  1  2  1  0
  2  3  2  0
  3  4  1  0
  4  5  1  0
  5  6  2  0
  5  7  1  0
  7  8  1  0
  8  9  2  0
  9 10  1  0
 10 11  2  0
 11 12  1  0
 12 13  2  0
 12 14  1  0
 14 15  1  0
 15 16  1  0
 16 17  1  0
 17 18  1  0
 17 19  1  0
 15 20  1  0
  4 21  2  0
 21 22  1  0
 22 23  1  0
 22 24  2  0
 24 25  1  0
 25 26  1  0
 26 27  1  0
 26 28  1  0
 26 29  1  0
 25 30  1  0
 30 31  2  0
 31  2  1  0
 13  8  1  0
 30 21  1  0
 20 11  1  0
M  END
>  <name>  (233) 
P115775

>  <alias>  (233) 
None

>  <smina_score_min>  (233) 
-8.608

>  <exports>  (233) 
['/opt/xchem-fragalysis-2/maxwin/BulkDock/OUTPUTS/openbind_xx01zvns2b_c2_elabs_1LOUTNY.sdf', '/opt/xchem-fragalysis-2/maxwin/BulkDock/OUTPUTS/openbind_xx01zvns2b_c2_elabs_1LSYIIV.sdf']

>  <tags>  (233) 
syndirella_placed,openbind_xx01zvns2b_c2_elabs,openbind_xx01zvns2b_c2_elabs_scored_6.2plus,syndirella_product,openbind_xx01zvns2b_c2_elabs_scored,openbind_xx01zvns2b_c2_elabs_scored_top80percent,BulkDock Fragalysis export

>  <subsites>  (233) 
1 - Z4590/B/203/1

>  <smiles>  (233) 
Cc1cc(C(=O)Nc2ccc3c(c2)CN(CC(F)F)C3)c2c(C)nn(C(C)(C)C)c2n1

>  <HIPPO Pose ID>  (233) 
115775

>  <energy_score>  (233) 
-48.320088

>  <inchikey>  (233) 
JTVWFRRLFLCKBI-UHFFFAOYSA-N

>  <gnina_score_min>  (233) 
6.346

>  <gnina_score>  (233) 
6.328

>  <ref_mols>  (233) 
Z3556a

>  <HIPPO Compound ID>  (233) 
178837

>  <distance_score>  (233) 
0.654998

>  <rmsd(smina/fragmenstein)>  (233) 
0.37

>  <ref_pdb>  (233) 
Z3556a

>  <inspiration_score>  (233) 
None

$$$$
P115776
     RDKit          3D

 31 34  0  0  0  0  0  0  0  0999 V2000
   -9.1569    4.1003  -17.9944 C   0  0  0  0  0  0  0  0  0  0  0  0
   -7.9723    4.4993  -17.1555 C   0  0  0  0  0  0  0  0  0  0  0  0
   -8.0055    4.3214  -15.7755 C   0  0  0  0  0  0  0  0  0  0  0  0
   -6.8405    4.5618  -15.0374 C   0  0  0  0  0  0  0  0  0  0  0  0
   -6.7747    4.2103  -13.6049 C   0  0  0  0  0  0  0  0  0  0  0  0
   -6.0995    3.3251  -13.2704 O   0  0  0  0  0  0  0  0  0  0  0  0
   -7.6882    5.1295  -12.7843 N   0  0  0  0  0  0  0  0  0  0  0  0
   -8.0258    5.0966  -11.4419 C   0  0  0  0  0  0  0  0  0  0  0  0
   -8.2469    6.3192  -10.7899 C   0  0  0  0  0  0  0  0  0  0  0  0
   -8.4511    6.3567   -9.4113 C   0  0  0  0  0  0  0  0  0  0  0  0
   -8.5172    5.1555   -8.7322 C   0  0  0  0  0  0  0  0  0  0  0  0
   -8.4000    3.9429   -9.4084 C   0  0  0  0  0  0  0  0  0  0  0  0
   -8.1032    3.8798  -10.7549 C   0  0  0  0  0  0  0  0  0  0  0  0
   -8.6937    2.8717   -8.4494 C   0  0  0  0  0  0  0  0  0  0  0  0
   -8.8312    1.7048   -8.7434 O   0  0  0  0  0  0  0  0  0  0  0  0
   -8.8506    3.4826   -7.2114 N   0  0  0  0  0  0  0  0  0  0  0  0
   -9.2131    2.7655   -5.9978 C   0  0  0  0  0  0  0  0  0  0  0  0
   -8.9084    3.5668   -4.7281 C   0  0  0  0  0  0  0  0  0  0  0  0
  -10.6791    2.3480   -6.0203 C   0  0  0  0  0  0  0  0  0  0  0  0
   -8.7427    4.9181   -7.2831 C   0  0  0  0  0  0  0  0  0  0  0  0
   -5.6903    4.9921  -15.7079 C   0  0  0  0  0  0  0  0  0  0  0  0
   -4.3440    5.3025  -15.4015 C   0  0  0  0  0  0  0  0  0  0  0  0
   -3.6646    5.2566  -14.0827 C   0  0  0  0  0  0  0  0  0  0  0  0
   -3.6582    5.6730  -16.4893 N   0  0  0  0  0  0  0  0  0  0  0  0
   -4.5378    5.5125  -17.5164 N   0  0  0  0  0  0  0  0  0  0  0  0
   -4.0669    5.7853  -18.8858 C   0  0  0  0  0  0  0  0  0  0  0  0
   -3.8674    7.3080  -19.0383 C   0  0  0  0  0  0  0  0  0  0  0  0
   -5.0387    5.3319  -19.9932 C   0  0  0  0  0  0  0  0  0  0  0  0
   -2.7123    5.0813  -19.1269 C   0  0  0  0  0  0  0  0  0  0  0  0
   -5.7927    5.1570  -17.0810 C   0  0  0  0  0  0  0  0  0  0  0  0
   -6.8951    4.9598  -17.8276 N   0  0  0  0  0  0  0  0  0  0  0  0
  1  2  1  0
  2  3  2  0
  3  4  1  0
  4  5  1  0
  5  6  2  0
  5  7  1  0
  7  8  1  0
  8  9  2  0
  9 10  1  0
 10 11  2  0
 11 12  1  0
 12 13  2  0
 12 14  1  0
 14 15  2  0
 14 16  1  0
 16 17  1  0
 17 18  1  0
 17 19  1  0
 16 20  1  0
  4 21  2  0
 21 22  1  0
 22 23  1  0
 22 24  2  0
 24 25  1  0
 25 26  1  0
 26 27  1  0
 26 28  1  0
 26 29  1  0
 25 30  1  0
 30 31  2  0
 31  2  1  0
 13  8  1  0
 30 21  1  0
 20 11  1  0
M  END
>  <name>  (234) 
P115776

>  <alias>  (234) 
None

>  <smina_score_min>  (234) 
-9.049

>  <exports>  (234) 
['/opt/xchem-fragalysis-2/maxwin/BulkDock/OUTPUTS/openbind_xx01zvns2b_c2_elabs_1LOUTNY.sdf', '/opt/xchem-fragalysis-2/maxwin/BulkDock/OUTPUTS/openbind_xx01zvns2b_c2_elabs_1LSYIIV.sdf']

>  <tags>  (234) 
syndirella_placed,openbind_xx01zvns2b_c2_elabs,openbind_xx01zvns2b_c2_elabs_scored_6.2plus,syndirella_product,openbind_xx01zvns2b_c2_elabs_scored,openbind_xx01zvns2b_c2_elabs_scored_top80percent,BulkDock Fragalysis export

>  <subsites>  (234) 
1 - Z4590/B/203/1

>  <smiles>  (234) 
Cc1cc(C(=O)Nc2ccc3c(c2)C(=O)N(C(C)C)C3)c2c(C)nn(C(C)(C)C)c2n1

>  <HIPPO Pose ID>  (234) 
115776

>  <energy_score>  (234) 
-53.952491

>  <inchikey>  (234) 
UHWRRKNBRDXKPZ-UHFFFAOYSA-N

>  <gnina_score_min>  (234) 
6.201

>  <gnina_score>  (234) 
6.17

>  <ref_mols>  (234) 
Z3556a

>  <HIPPO Compound ID>  (234) 
178838

>  <distance_score>  (234) 
0.979389

>  <rmsd(smina/fragmenstein)>  (234) 
0.723

>  <ref_pdb>  (234) 
Z3556a

>  <inspiration_score>  (234) 
None

$$$$
P115785
     RDKit          3D

 31 34  0  0  0  0  0  0  0  0999 V2000
   -2.4410    5.0789  -20.9237 C   0  0  0  0  0  0  0  0  0  0  0  0
   -2.8238    5.1740  -19.4527 C   0  0  0  0  0  0  0  0  0  0  0  0
   -4.3284    5.4215  -19.2393 C   0  0  2  0  0  0  0  0  0  0  0  0
   -4.7829    6.7740  -19.8020 C   0  0  0  0  0  0  0  0  0  0  0  0
   -4.7259    5.3237  -17.8365 N   0  0  0  0  0  0  0  0  0  0  0  0
   -3.9253    5.7873  -16.8436 N   0  0  0  0  0  0  0  0  0  0  0  0
   -4.7103    5.7238  -15.7617 C   0  0  0  0  0  0  0  0  0  0  0  0
   -5.9951    5.2182  -16.0473 C   0  0  0  0  0  0  0  0  0  0  0  0
   -7.2028    4.9907  -15.3816 C   0  0  0  0  0  0  0  0  0  0  0  0
   -7.3692    5.5206  -14.0246 C   0  0  0  0  0  0  0  0  0  0  0  0
   -7.1056    6.6471  -13.8651 O   0  0  0  0  0  0  0  0  0  0  0  0
   -7.8899    4.4632  -13.0269 N   0  0  0  0  0  0  0  0  0  0  0  0
   -8.0979    4.5420  -11.6526 C   0  0  0  0  0  0  0  0  0  0  0  0
   -7.9668    5.7956  -11.0259 C   0  0  0  0  0  0  0  0  0  0  0  0
   -8.1075    5.9329   -9.6529 C   0  0  0  0  0  0  0  0  0  0  0  0
   -8.3777    4.7959   -8.9278 C   0  0  0  0  0  0  0  0  0  0  0  0
   -8.5422    3.5462   -9.5327 C   0  0  0  0  0  0  0  0  0  0  0  0
   -8.4066    3.3991  -10.9055 C   0  0  0  0  0  0  0  0  0  0  0  0
   -8.8839    2.5422   -8.4702 C   0  0  0  0  0  0  0  0  0  0  0  0
   -8.5682    3.2486   -7.2160 N   0  0  0  0  0  0  0  0  0  0  0  0
   -9.3239    2.8440   -6.0314 C   0  0  0  0  0  0  0  0  0  0  0  0
   -8.8645    3.5295   -4.7242 C   0  0  0  0  0  0  0  0  0  0  0  0
   -9.5302    3.0799   -3.6405 F   0  0  0  0  0  0  0  0  0  0  0  0
   -7.5389    3.3990   -4.4814 F   0  0  0  0  0  0  0  0  0  0  0  0
   -9.1202    4.8682   -4.7722 F   0  0  0  0  0  0  0  0  0  0  0  0
   -8.5585    4.6860   -7.4590 C   0  0  0  0  0  0  0  0  0  0  0  0
   -8.2840    4.4812  -16.0999 C   0  0  0  0  0  0  0  0  0  0  0  0
   -8.1354    4.2786  -17.4703 C   0  0  0  0  0  0  0  0  0  0  0  0
   -9.3149    3.8335  -18.2844 C   0  0  0  0  0  0  0  0  0  0  0  0
   -6.9867    4.4899  -18.1530 N   0  0  0  0  0  0  0  0  0  0  0  0
   -5.9715    4.9503  -17.4011 C   0  0  0  0  0  0  0  0  0  0  0  0
  1  2  1  0
  2  3  1  0
  3  4  1  1
  3  5  1  0
  5  6  1  0
  6  7  2  0
  7  8  1  0
  8  9  2  0
  9 10  1  0
 10 11  2  0
 10 12  1  0
 12 13  1  0
 13 14  2  0
 14 15  1  0
 15 16  2  0
 16 17  1  0
 17 18  2  0
 17 19  1  0
 19 20  1  0
 20 21  1  0
 21 22  1  0
 22 23  1  0
 22 24  1  0
 22 25  1  0
 20 26  1  0
  9 27  1  0
 27 28  2  0
 28 29  1  0
 28 30  1  0
 30 31  2  0
 31  5  1  0
 31  8  1  0
 18 13  1  0
 26 16  1  0
M  END
>  <name>  (235) 
P115785

>  <alias>  (235) 
None

>  <smina_score_min>  (235) 
-8.566

>  <exports>  (235) 
['/opt/xchem-fragalysis-2/maxwin/BulkDock/OUTPUTS/openbind_xx01zvns2b_c2_elabs_1LOUTNY.sdf', '/opt/xchem-fragalysis-2/maxwin/BulkDock/OUTPUTS/openbind_xx01zvns2b_c2_elabs_1LSYIIV.sdf']

>  <tags>  (235) 
syndirella_placed,openbind_xx01zvns2b_c2_elabs,openbind_xx01zvns2b_c2_elabs_scored_6.2plus,syndirella_product,openbind_xx01zvns2b_c2_elabs_scored,openbind_xx01zvns2b_c2_elabs_scored_top80percent,BulkDock Fragalysis export

>  <subsites>  (235) 
1 - Z4590/B/203/1

>  <smiles>  (235) 
CC[C@H](C)n1ncc2c(C(=O)Nc3ccc4c(c3)CN(CC(F)(F)F)C4)cc(C)nc21

>  <HIPPO Pose ID>  (235) 
115785

>  <energy_score>  (235) 
-49.087271

>  <inchikey>  (235) 
AGSDMIQNEHFHDM-AWEZNQCLSA-N

>  <gnina_score_min>  (235) 
6.298

>  <gnina_score>  (235) 
6.154

>  <ref_mols>  (235) 
Z3556a

>  <HIPPO Compound ID>  (235) 
178846

>  <distance_score>  (235) 
0.6228

>  <rmsd(smina/fragmenstein)>  (235) 
0.578

>  <ref_pdb>  (235) 
Z3556a

>  <inspiration_score>  (235) 
None

$$$$
P115787
     RDKit          3D

 31 34  0  0  0  0  0  0  0  0999 V2000
   -1.8621    6.7731  -19.1429 C   0  0  0  0  0  0  0  0  0  0  0  0
   -3.3183    7.2196  -19.2260 C   0  0  0  0  0  0  0  0  0  0  0  0
   -4.3702    6.0841  -19.1683 C   0  0  1  0  0  0  0  0  0  0  0  0
   -4.0646    4.9746  -20.1602 C   0  0  0  0  0  0  0  0  0  0  0  0
   -4.6609    5.5876  -17.8257 N   0  0  0  0  0  0  0  0  0  0  0  0
   -3.8206    5.8460  -16.7899 N   0  0  0  0  0  0  0  0  0  0  0  0
   -4.5907    5.6714  -15.7126 C   0  0  0  0  0  0  0  0  0  0  0  0
   -5.8833    5.2194  -16.0373 C   0  0  0  0  0  0  0  0  0  0  0  0
   -7.0855    4.9487  -15.3783 C   0  0  0  0  0  0  0  0  0  0  0  0
   -7.2288    5.4118  -13.9946 C   0  0  0  0  0  0  0  0  0  0  0  0
   -6.9593    6.5291  -13.7893 O   0  0  0  0  0  0  0  0  0  0  0  0
   -7.6750    4.2969  -13.0271 N   0  0  0  0  0  0  0  0  0  0  0  0
   -7.9647    4.3431  -11.6674 C   0  0  0  0  0  0  0  0  0  0  0  0
   -7.8939    5.5894  -11.0088 C   0  0  0  0  0  0  0  0  0  0  0  0
   -8.1217    5.6949   -9.6459 C   0  0  0  0  0  0  0  0  0  0  0  0
   -8.4232    4.5298   -8.9830 C   0  0  0  0  0  0  0  0  0  0  0  0
   -8.5173    3.2844   -9.6013 C   0  0  0  0  0  0  0  0  0  0  0  0
   -8.2857    3.1736  -10.9636 C   0  0  0  0  0  0  0  0  0  0  0  0
   -8.8565    2.2531   -8.5724 C   0  0  0  0  0  0  0  0  0  0  0  0
   -9.1033    3.0711   -7.3858 N   0  0  0  0  0  0  0  0  0  0  0  0
   -9.2485    2.4782   -6.0724 C   0  0  0  0  0  0  0  0  0  0  0  0
  -10.2537    3.2149   -5.1710 C   0  0  0  0  0  0  0  0  0  0  0  0
   -9.7392    3.5687   -3.8787 O   0  0  0  0  0  0  0  0  0  0  0  0
   -8.8154    4.6434   -3.9037 C   0  0  0  0  0  0  0  0  0  0  0  0
   -8.7135    4.3798   -7.5675 C   0  0  0  0  0  0  0  0  0  0  0  0
   -8.6126    5.2873   -6.7640 O   0  0  0  0  0  0  0  0  0  0  0  0
   -8.1721    4.4829  -16.1156 C   0  0  0  0  0  0  0  0  0  0  0  0
   -8.0311    4.3709  -17.4987 C   0  0  0  0  0  0  0  0  0  0  0  0
   -9.2063    3.9194  -18.3197 C   0  0  0  0  0  0  0  0  0  0  0  0
   -6.9060    4.6943  -18.1843 N   0  0  0  0  0  0  0  0  0  0  0  0
   -5.8813    5.1009  -17.4132 C   0  0  0  0  0  0  0  0  0  0  0  0
  1  2  1  0
  2  3  1  0
  3  4  1  6
  3  5  1  0
  5  6  1  0
  6  7  2  0
  7  8  1  0
  8  9  2  0
  9 10  1  0
 10 11  2  0
 10 12  1  0
 12 13  1  0
 13 14  2  0
 14 15  1  0
 15 16  2  0
 16 17  1  0
 17 18  2  0
 17 19  1  0
 19 20  1  0
 20 21  1  0
 21 22  1  0
 22 23  1  0
 23 24  1  0
 20 25  1  0
 25 26  2  0
  9 27  1  0
 27 28  2  0
 28 29  1  0
 28 30  1  0
 30 31  2  0
 31  5  1  0
 31  8  1  0
 18 13  1  0
 25 16  1  0
M  END
>  <name>  (236) 
P115787

>  <alias>  (236) 
None

>  <smina_score_min>  (236) 
-7.848

>  <exports>  (236) 
['/opt/xchem-fragalysis-2/maxwin/BulkDock/OUTPUTS/openbind_xx01zvns2b_c2_elabs_1LOUTNY.sdf', '/opt/xchem-fragalysis-2/maxwin/BulkDock/OUTPUTS/openbind_xx01zvns2b_c2_elabs_1LSYIIV.sdf']

>  <tags>  (236) 
syndirella_placed,openbind_xx01zvns2b_c2_elabs,openbind_xx01zvns2b_c2_elabs_scored_6.2plus,syndirella_product,openbind_xx01zvns2b_c2_elabs_scored,openbind_xx01zvns2b_c2_elabs_scored_top80percent,BulkDock Fragalysis export

>  <subsites>  (236) 
1 - Z4590/B/203/1

>  <smiles>  (236) 
CC[C@@H](C)n1ncc2c(C(=O)Nc3ccc4c(c3)CN(CCOC)C4=O)cc(C)nc21

>  <HIPPO Pose ID>  (236) 
115787

>  <energy_score>  (236) 
-39.001958

>  <inchikey>  (236) 
YELJBOYGSYOROM-OAHLLOKOSA-N

>  <gnina_score_min>  (236) 
6.284

>  <gnina_score>  (236) 
6.099

>  <ref_mols>  (236) 
Z3556a

>  <HIPPO Compound ID>  (236) 
178847

>  <distance_score>  (236) 
0.593246

>  <rmsd(smina/fragmenstein)>  (236) 
0.749

>  <ref_pdb>  (236) 
Z3556a

>  <inspiration_score>  (236) 
None

$$$$
P115795
     RDKit          3D

 31 34  0  0  0  0  0  0  0  0999 V2000
   -2.4934    5.0793  -20.9265 C   0  0  0  0  0  0  0  0  0  0  0  0
   -2.8556    5.1664  -19.4497 C   0  0  0  0  0  0  0  0  0  0  0  0
   -4.3548    5.4283  -19.2148 C   0  0  2  0  0  0  0  0  0  0  0  0
   -4.8007    6.7918  -19.7564 C   0  0  0  0  0  0  0  0  0  0  0  0
   -4.7372    5.3173  -17.8090 N   0  0  0  0  0  0  0  0  0  0  0  0
   -3.9178    5.7560  -16.8206 N   0  0  0  0  0  0  0  0  0  0  0  0
   -4.6846    5.6701  -15.7270 C   0  0  0  0  0  0  0  0  0  0  0  0
   -5.9760    5.1730  -16.0007 C   0  0  0  0  0  0  0  0  0  0  0  0
   -7.1700    4.9285  -15.3137 C   0  0  0  0  0  0  0  0  0  0  0  0
   -7.2997    5.4329  -13.9412 C   0  0  0  0  0  0  0  0  0  0  0  0
   -7.0331    6.5597  -13.7816 O   0  0  0  0  0  0  0  0  0  0  0  0
   -7.7256    4.3494  -12.9230 N   0  0  0  0  0  0  0  0  0  0  0  0
   -7.9952    4.4452  -11.5577 C   0  0  0  0  0  0  0  0  0  0  0  0
   -7.9253    5.7155  -10.9567 C   0  0  0  0  0  0  0  0  0  0  0  0
   -8.1320    5.8810   -9.5959 C   0  0  0  0  0  0  0  0  0  0  0  0
   -8.4051    4.7556   -8.8512 C   0  0  0  0  0  0  0  0  0  0  0  0
   -8.4963    3.4887   -9.4210 C   0  0  0  0  0  0  0  0  0  0  0  0
   -8.2977    3.3129  -10.7874 C   0  0  0  0  0  0  0  0  0  0  0  0
   -8.8526    2.5052   -8.3404 C   0  0  0  0  0  0  0  0  0  0  0  0
   -8.7640    3.2766   -7.0627 N   0  0  0  0  0  0  0  0  0  0  0  0
   -9.8066    2.9328   -6.1034 C   0  0  0  0  0  0  0  0  0  0  0  0
   -9.9451    3.8446   -4.8615 C   0  0  0  0  0  0  0  0  0  0  0  0
   -8.8548    3.8295   -3.7750 C   0  0  0  0  0  0  0  0  0  0  0  0
   -9.2295    4.7826   -2.6330 C   0  0  0  0  0  0  0  0  0  0  0  0
   -7.4504    4.1678   -4.2569 C   0  0  0  0  0  0  0  0  0  0  0  0
   -8.6763    4.6963   -7.3946 C   0  0  0  0  0  0  0  0  0  0  0  0
   -8.2664    4.4422  -16.0263 C   0  0  0  0  0  0  0  0  0  0  0  0
   -8.1435    4.2748  -17.4064 C   0  0  0  0  0  0  0  0  0  0  0  0
   -9.3327    3.8383  -18.2125 C   0  0  0  0  0  0  0  0  0  0  0  0
   -7.0090    4.5082  -18.1083 N   0  0  0  0  0  0  0  0  0  0  0  0
   -5.9785    4.9433  -17.3620 C   0  0  0  0  0  0  0  0  0  0  0  0
  1  2  1  0
  2  3  1  0
  3  4  1  1
  3  5  1  0
  5  6  1  0
  6  7  2  0
  7  8  1  0
  8  9  2  0
  9 10  1  0
 10 11  2  0
 10 12  1  0
 12 13  1  0
 13 14  2  0
 14 15  1  0
 15 16  2  0
 16 17  1  0
 17 18  2  0
 17 19  1  0
 19 20  1  0
 20 21  1  0
 21 22  1  0
 22 23  1  0
 23 24  1  0
 23 25  1  0
 20 26  1  0
  9 27  1  0
 27 28  2  0
 28 29  1  0
 28 30  1  0
 30 31  2  0
 31  5  1  0
 31  8  1  0
 18 13  1  0
 26 16  1  0
M  END
>  <name>  (237) 
P115795

>  <alias>  (237) 
None

>  <smina_score_min>  (237) 
-8.428

>  <exports>  (237) 
['/opt/xchem-fragalysis-2/maxwin/BulkDock/OUTPUTS/openbind_xx01zvns2b_c2_elabs_1LOUTNY.sdf', '/opt/xchem-fragalysis-2/maxwin/BulkDock/OUTPUTS/openbind_xx01zvns2b_c2_elabs_1LSYIIV.sdf']

>  <tags>  (237) 
syndirella_placed,openbind_xx01zvns2b_c2_elabs,openbind_xx01zvns2b_c2_elabs_scored_6.2plus,syndirella_product,openbind_xx01zvns2b_c2_elabs_scored,openbind_xx01zvns2b_c2_elabs_scored_top80percent,BulkDock Fragalysis export

>  <subsites>  (237) 
1 - Z4590/B/203/1

>  <smiles>  (237) 
CC[C@H](C)n1ncc2c(C(=O)Nc3ccc4c(c3)CN(CCC(C)C)C4)cc(C)nc21

>  <HIPPO Pose ID>  (237) 
115795

>  <energy_score>  (237) 
-33.743767

>  <inchikey>  (237) 
QEMLGUBRWQJVGY-SFHVURJKSA-N

>  <gnina_score_min>  (237) 
6.326

>  <gnina_score>  (237) 
6.194

>  <ref_mols>  (237) 
Z3556a

>  <HIPPO Compound ID>  (237) 
178851

>  <distance_score>  (237) 
0.585925

>  <rmsd(smina/fragmenstein)>  (237) 
0.47

>  <ref_pdb>  (237) 
Z3556a

>  <inspiration_score>  (237) 
None

$$$$
P115808
     RDKit          3D

 31 34  0  0  0  0  0  0  0  0999 V2000
   -7.9862    4.9654   -3.0363 C   0  0  0  0  0  0  0  0  0  0  0  0
   -8.8709    4.1684   -3.9812 C   0  0  0  0  0  0  0  0  0  0  0  0
   -8.0494    3.4284   -5.0379 C   0  0  0  0  0  0  0  0  0  0  0  0
   -8.9466    2.7126   -6.0677 C   0  0  0  0  0  0  0  0  0  0  0  0
   -8.8046    3.2697   -7.3911 N   0  0  0  0  0  0  0  0  0  0  0  0
   -8.7202    2.4415   -8.5935 C   0  0  0  0  0  0  0  0  0  0  0  0
   -8.5007    3.4698   -9.6573 C   0  0  0  0  0  0  0  0  0  0  0  0
   -8.2508    3.3373  -11.0145 C   0  0  0  0  0  0  0  0  0  0  0  0
   -8.0494    4.5113  -11.7559 C   0  0  0  0  0  0  0  0  0  0  0  0
   -7.7245    4.4502  -13.1067 N   0  0  0  0  0  0  0  0  0  0  0  0
   -7.4090    5.5755  -14.1130 C   0  0  0  0  0  0  0  0  0  0  0  0
   -7.2963    6.7260  -13.9510 O   0  0  0  0  0  0  0  0  0  0  0  0
   -7.1278    5.0671  -15.4554 C   0  0  0  0  0  0  0  0  0  0  0  0
   -8.1339    4.5498  -16.2591 C   0  0  0  0  0  0  0  0  0  0  0  0
   -7.8479    4.3441  -17.6054 C   0  0  0  0  0  0  0  0  0  0  0  0
   -8.9564    3.8727  -18.5054 C   0  0  0  0  0  0  0  0  0  0  0  0
   -6.6448    4.5928  -18.1918 N   0  0  0  0  0  0  0  0  0  0  0  0
   -5.6992    5.0739  -17.3584 C   0  0  0  0  0  0  0  0  0  0  0  0
   -5.8681    5.3173  -16.0049 C   0  0  0  0  0  0  0  0  0  0  0  0
   -4.6373    5.8300  -15.5650 C   0  0  0  0  0  0  0  0  0  0  0  0
   -3.7401    5.9159  -16.5458 N   0  0  0  0  0  0  0  0  0  0  0  0
   -4.4144    5.4808  -17.6485 N   0  0  0  0  0  0  0  0  0  0  0  0
   -3.7164    5.6117  -18.9241 C   0  0  1  0  0  0  0  0  0  0  0  0
   -2.4754    4.7120  -18.9711 C   0  0  0  0  0  0  0  0  0  0  0  0
   -4.5435    5.4774  -20.2150 C   0  0  0  0  0  0  0  0  0  0  0  0
   -5.3997    6.7100  -20.4802 C   0  0  0  0  0  0  0  0  0  0  0  0
   -8.1228    5.7798  -11.1419 C   0  0  0  0  0  0  0  0  0  0  0  0
   -8.3795    5.9078   -9.7867 C   0  0  0  0  0  0  0  0  0  0  0  0
   -8.5586    4.7412   -9.0845 C   0  0  0  0  0  0  0  0  0  0  0  0
   -8.8112    4.6158   -7.6585 C   0  0  0  0  0  0  0  0  0  0  0  0
   -8.9643    5.5605   -6.9073 O   0  0  0  0  0  0  0  0  0  0  0  0
  1  2  1  0
  2  3  1  0
  3  4  1  0
  4  5  1  0
  5  6  1  0
  6  7  1  0
  7  8  2  0
  8  9  1  0
  9 10  1  0
 10 11  1  0
 11 12  2  0
 11 13  1  0
 13 14  2  0
 14 15  1  0
 15 16  1  0
 15 17  2  0
 17 18  1  0
 18 19  2  0
 19 20  1  0
 20 21  2  0
 21 22  1  0
 22 23  1  0
 23 24  1  6
 23 25  1  0
 25 26  1  0
  9 27  2  0
 27 28  1  0
 28 29  2  0
 29 30  1  0
 30 31  2  0
 30  5  1  0
 29  7  1  0
 19 13  1  0
 22 18  1  0
M  END
>  <name>  (238) 
P115808

>  <alias>  (238) 
None

>  <smina_score_min>  (238) 
-8.129

>  <exports>  (238) 
['/opt/xchem-fragalysis-2/maxwin/BulkDock/OUTPUTS/openbind_xx01zvns2b_c2_elabs_1LOUTNY.sdf', '/opt/xchem-fragalysis-2/maxwin/BulkDock/OUTPUTS/openbind_xx01zvns2b_c2_elabs_1LSYIIV.sdf']

>  <tags>  (238) 
syndirella_placed,openbind_xx01zvns2b_c2_elabs,openbind_xx01zvns2b_c2_elabs_scored_6.2plus,syndirella_product,openbind_xx01zvns2b_c2_elabs_scored,openbind_xx01zvns2b_c2_elabs_scored_top80percent,BulkDock Fragalysis export

>  <subsites>  (238) 
1 - Z4590/B/203/1

>  <smiles>  (238) 
CCCCN1Cc2cc(NC(=O)c3cc(C)nc4c3cnn4[C@@H](C)CC)ccc2C1=O

>  <HIPPO Pose ID>  (238) 
115808

>  <energy_score>  (238) 
-36.26834

>  <inchikey>  (238) 
DLRFHHKCYOEGSD-INIZCTEOSA-N

>  <gnina_score_min>  (238) 
6.265

>  <gnina_score>  (238) 
6.216

>  <ref_mols>  (238) 
Z3556a

>  <HIPPO Compound ID>  (238) 
178860

>  <distance_score>  (238) 
0.694386

>  <rmsd(smina/fragmenstein)>  (238) 
0.727

>  <ref_pdb>  (238) 
Z3556a

>  <inspiration_score>  (238) 
None

$$$$
P115831
     RDKit          3D

 31 34  0  0  0  0  0  0  0  0999 V2000
  -10.2271    4.3907  -18.3533 C   0  0  0  0  0  0  0  0  0  0  0  0
   -8.9822    3.5950  -18.0698 C   0  0  0  0  0  0  0  0  0  0  0  0
   -7.9179    4.3162  -17.2771 C   0  0  0  0  0  0  0  0  0  0  0  0
   -7.9650    4.2787  -15.8827 C   0  0  0  0  0  0  0  0  0  0  0  0
   -6.8208    4.6355  -15.1560 C   0  0  0  0  0  0  0  0  0  0  0  0
   -6.7282    4.2683  -13.7311 C   0  0  0  0  0  0  0  0  0  0  0  0
   -5.9808    3.4356  -13.4164 O   0  0  0  0  0  0  0  0  0  0  0  0
   -7.7660    5.0361  -12.9053 N   0  0  0  0  0  0  0  0  0  0  0  0
   -8.0310    5.0114  -11.5481 C   0  0  0  0  0  0  0  0  0  0  0  0
   -8.3260    6.2126  -10.8972 C   0  0  0  0  0  0  0  0  0  0  0  0
   -8.5241    6.2207   -9.5208 C   0  0  0  0  0  0  0  0  0  0  0  0
   -8.5133    5.0093   -8.8512 C   0  0  0  0  0  0  0  0  0  0  0  0
   -8.3026    3.8048   -9.5094 C   0  0  0  0  0  0  0  0  0  0  0  0
   -8.0063    3.7908  -10.8587 C   0  0  0  0  0  0  0  0  0  0  0  0
   -8.5087    2.6708   -8.5545 C   0  0  0  0  0  0  0  0  0  0  0  0
   -8.6360    3.3150   -7.2151 N   0  0  0  0  0  0  0  0  0  0  0  0
   -9.6817    2.6980   -6.4057 C   0  0  0  0  0  0  0  0  0  0  0  0
  -10.0610    3.4330   -5.1126 C   0  0  0  0  0  0  0  0  0  0  0  0
   -8.9018    3.8609   -4.2237 C   0  0  0  0  0  0  0  0  0  0  0  0
   -9.4422    4.5079   -3.0628 O   0  0  0  0  0  0  0  0  0  0  0  0
   -8.4183    4.9296   -2.1738 C   0  0  0  0  0  0  0  0  0  0  0  0
   -8.7446    4.7634   -7.4047 C   0  0  0  0  0  0  0  0  0  0  0  0
   -5.6942    5.0781  -15.8519 C   0  0  0  0  0  0  0  0  0  0  0  0
   -4.3532    5.4566  -15.5795 C   0  0  0  0  0  0  0  0  0  0  0  0
   -3.6660    5.5256  -14.2655 C   0  0  0  0  0  0  0  0  0  0  0  0
   -3.6825    5.7588  -16.7023 N   0  0  0  0  0  0  0  0  0  0  0  0
   -4.5706    5.4967  -17.6856 N   0  0  0  0  0  0  0  0  0  0  0  0
   -4.1556    5.5502  -19.0705 C   0  0  0  0  0  0  0  0  0  0  0  0
   -4.4370    6.9039  -19.6979 C   0  0  0  0  0  0  0  0  0  0  0  0
   -5.8054    5.1300  -17.2318 C   0  0  0  0  0  0  0  0  0  0  0  0
   -6.8727    4.8004  -17.9853 N   0  0  0  0  0  0  0  0  0  0  0  0
  1  2  1  0
  2  3  1  0
  3  4  2  0
  4  5  1  0
  5  6  1  0
  6  7  2  0
  6  8  1  0
  8  9  1  0
  9 10  2  0
 10 11  1  0
 11 12  2  0
 12 13  1  0
 13 14  2  0
 13 15  1  0
 15 16  1  0
 16 17  1  0
 17 18  1  0
 18 19  1  0
 19 20  1  0
 20 21  1  0
 16 22  1  0
  5 23  2  0
 23 24  1  0
 24 25  1  0
 24 26  2  0
 26 27  1  0
 27 28  1  0
 28 29  1  0
 27 30  1  0
 30 31  2  0
 31  3  1  0
 14  9  1  0
 30 23  1  0
 22 12  1  0
M  END
>  <name>  (239) 
P115831

>  <alias>  (239) 
None

>  <smina_score_min>  (239) 
-7.488

>  <exports>  (239) 
['/opt/xchem-fragalysis-2/maxwin/BulkDock/OUTPUTS/openbind_xx01zvns2b_c2_elabs_1LOUTNY.sdf', '/opt/xchem-fragalysis-2/maxwin/BulkDock/OUTPUTS/openbind_xx01zvns2b_c2_elabs_1LSYIIV.sdf']

>  <tags>  (239) 
syndirella_placed,openbind_xx01zvns2b_c2_elabs,openbind_xx01zvns2b_c2_elabs_scored_6.2plus,syndirella_product,openbind_xx01zvns2b_c2_elabs_scored,openbind_xx01zvns2b_c2_elabs_scored_top80percent,BulkDock Fragalysis export

>  <subsites>  (239) 
1 - Z4590/B/203/1

>  <smiles>  (239) 
CCc1cc(C(=O)Nc2ccc3c(c2)CN(CCCOC)C3)c2c(C)nn(CC)c2n1

>  <HIPPO Pose ID>  (239) 
115831

>  <energy_score>  (239) 
-16.910516

>  <inchikey>  (239) 
YTUFNYVMNWMCBO-UHFFFAOYSA-N

>  <gnina_score_min>  (239) 
6.253

>  <gnina_score>  (239) 
6.119

>  <ref_mols>  (239) 
Z3556a

>  <HIPPO Compound ID>  (239) 
178881

>  <distance_score>  (239) 
0.923429

>  <rmsd(smina/fragmenstein)>  (239) 
0.546

>  <ref_pdb>  (239) 
Z3556a

>  <inspiration_score>  (239) 
None

$$$$
P115833
     RDKit          3D

 31 34  0  0  0  0  0  0  0  0999 V2000
   -4.2224    6.1710  -14.3526 C   0  0  0  0  0  0  0  0  0  0  0  0
   -4.6880    5.7230  -15.6887 C   0  0  0  0  0  0  0  0  0  0  0  0
   -3.8266    5.6604  -16.7151 N   0  0  0  0  0  0  0  0  0  0  0  0
   -4.5939    5.2570  -17.7536 N   0  0  0  0  0  0  0  0  0  0  0  0
   -4.0113    5.1670  -19.0665 C   0  0  0  0  0  0  0  0  0  0  0  0
   -5.8957    5.0141  -17.4180 C   0  0  0  0  0  0  0  0  0  0  0  0
   -6.8858    4.5966  -18.2305 N   0  0  0  0  0  0  0  0  0  0  0  0
   -8.0972    4.4706  -17.6346 C   0  0  0  0  0  0  0  0  0  0  0  0
   -9.2235    3.9481  -18.5109 C   0  0  0  0  0  0  0  0  0  0  0  0
  -10.5921    4.5965  -18.4010 C   0  0  0  0  0  0  0  0  0  0  0  0
   -9.3878    2.4825  -18.2090 C   0  0  0  0  0  0  0  0  0  0  0  0
   -8.3162    4.7247  -16.2835 C   0  0  0  0  0  0  0  0  0  0  0  0
   -7.2606    5.1932  -15.5071 C   0  0  0  0  0  0  0  0  0  0  0  0
   -7.5365    5.7577  -14.1908 C   0  0  0  0  0  0  0  0  0  0  0  0
   -7.5083    6.9183  -14.0913 O   0  0  0  0  0  0  0  0  0  0  0  0
   -7.9148    4.6779  -13.1638 N   0  0  0  0  0  0  0  0  0  0  0  0
   -8.2352    4.7866  -11.8195 C   0  0  0  0  0  0  0  0  0  0  0  0
   -8.4598    6.0688  -11.2762 C   0  0  0  0  0  0  0  0  0  0  0  0
   -8.6935    6.2522   -9.9193 C   0  0  0  0  0  0  0  0  0  0  0  0
   -8.6473    5.1343   -9.1242 C   0  0  0  0  0  0  0  0  0  0  0  0
   -8.3891    3.8631   -9.6560 C   0  0  0  0  0  0  0  0  0  0  0  0
   -8.2433    3.6503  -11.0134 C   0  0  0  0  0  0  0  0  0  0  0  0
   -8.0430    2.9642   -8.5090 C   0  0  0  0  0  0  0  0  0  0  0  0
   -7.6420    3.9371   -7.4185 N   0  0  0  0  0  0  0  0  0  0  0  0
   -6.2446    4.4500   -7.6892 C   0  0  0  0  0  0  0  0  0  0  0  0
   -5.5714    5.2748   -6.5824 C   0  0  0  0  0  0  0  0  0  0  0  0
   -6.2579    6.3829   -6.2394 F   0  0  0  0  0  0  0  0  0  0  0  0
   -4.3412    5.6792   -6.9902 F   0  0  0  0  0  0  0  0  0  0  0  0
   -5.3735    4.5382   -5.4603 F   0  0  0  0  0  0  0  0  0  0  0  0
   -8.5835    5.0582   -7.6331 C   0  0  0  0  0  0  0  0  0  0  0  0
   -5.9928    5.3205  -16.0730 C   0  0  0  0  0  0  0  0  0  0  0  0
  1  2  1  0
  2  3  2  0
  3  4  1  0
  4  5  1  0
  4  6  1  0
  6  7  2  0
  7  8  1  0
  8  9  1  0
  9 10  1  0
  9 11  1  0
  8 12  2  0
 12 13  1  0
 13 14  1  0
 14 15  2  0
 14 16  1  0
 16 17  1  0
 17 18  2  0
 18 19  1  0
 19 20  2  0
 20 21  1  0
 21 22  2  0
 21 23  1  0
 23 24  1  0
 24 25  1  0
 25 26  1  0
 26 27  1  0
 26 28  1  0
 26 29  1  0
 24 30  1  0
 13 31  2  0
 31  2  1  0
 31  6  1  0
 22 17  1  0
 30 20  1  0
M  END
>  <name>  (240) 
P115833

>  <alias>  (240) 
None

>  <smina_score_min>  (240) 
-6.308

>  <exports>  (240) 
['/opt/xchem-fragalysis-2/maxwin/BulkDock/OUTPUTS/openbind_xx01zvns2b_c2_elabs_1LOUTNY.sdf', '/opt/xchem-fragalysis-2/maxwin/BulkDock/OUTPUTS/openbind_xx01zvns2b_c2_elabs_1LSYIIV.sdf']

>  <tags>  (240) 
syndirella_placed,openbind_xx01zvns2b_c2_elabs,openbind_xx01zvns2b_c2_elabs_scored_6.2plus,syndirella_product,openbind_xx01zvns2b_c2_elabs_scored,openbind_xx01zvns2b_c2_elabs_scored_top80percent,BulkDock Fragalysis export

>  <subsites>  (240) 
1 - Z4590/B/203/1

>  <smiles>  (240) 
Cc1nn(C)c2nc(C(C)C)cc(C(=O)Nc3ccc4c(c3)CN(CC(F)(F)F)C4)c12

>  <HIPPO Pose ID>  (240) 
115833

>  <energy_score>  (240) 
-18.18643

>  <inchikey>  (240) 
FXYCAMQPLYGALV-UHFFFAOYSA-N

>  <gnina_score_min>  (240) 
6.318

>  <gnina_score>  (240) 
5.699

>  <ref_mols>  (240) 
Z3556a

>  <HIPPO Compound ID>  (240) 
178883

>  <distance_score>  (240) 
0.930957

>  <rmsd(smina/fragmenstein)>  (240) 
0.697

>  <ref_pdb>  (240) 
Z3556a

>  <inspiration_score>  (240) 
None

$$$$
P115844
     RDKit          3D

 31 34  0  0  0  0  0  0  0  0999 V2000
   -9.2244    4.3444  -19.0552 C   0  0  0  0  0  0  0  0  0  0  0  0
   -9.1438    3.7767  -17.6708 C   0  0  0  0  0  0  0  0  0  0  0  0
   -7.9100    4.2797  -16.9695 C   0  0  0  0  0  0  0  0  0  0  0  0
   -7.9867    4.5396  -15.6124 C   0  0  0  0  0  0  0  0  0  0  0  0
   -6.8698    5.0773  -14.9760 C   0  0  0  0  0  0  0  0  0  0  0  0
   -7.0222    5.5590  -13.6070 C   0  0  0  0  0  0  0  0  0  0  0  0
   -6.8752    6.6986  -13.4029 O   0  0  0  0  0  0  0  0  0  0  0  0
   -7.4663    4.4222  -12.6620 N   0  0  0  0  0  0  0  0  0  0  0  0
   -7.7209    4.4319  -11.3003 C   0  0  0  0  0  0  0  0  0  0  0  0
   -7.6941    5.6606  -10.6139 C   0  0  0  0  0  0  0  0  0  0  0  0
   -8.0558    5.7318   -9.2797 C   0  0  0  0  0  0  0  0  0  0  0  0
   -8.4151    4.5494   -8.6745 C   0  0  0  0  0  0  0  0  0  0  0  0
   -8.4188    3.3154   -9.3154 C   0  0  0  0  0  0  0  0  0  0  0  0
   -8.0749    3.2392  -10.6524 C   0  0  0  0  0  0  0  0  0  0  0  0
   -8.8959    2.2677   -8.3662 C   0  0  0  0  0  0  0  0  0  0  0  0
   -9.1827    3.0383   -7.1531 N   0  0  0  0  0  0  0  0  0  0  0  0
  -10.0487    2.4702   -6.1337 C   0  0  0  0  0  0  0  0  0  0  0  0
  -10.3258    3.3002   -4.8698 C   0  0  0  0  0  0  0  0  0  0  0  0
   -9.3429    3.2914   -3.8342 O   0  0  0  0  0  0  0  0  0  0  0  0
   -8.1882    4.0543   -4.1277 C   0  0  0  0  0  0  0  0  0  0  0  0
   -8.9602    4.3870   -7.3389 C   0  0  0  0  0  0  0  0  0  0  0  0
   -9.2038    5.3384   -6.6206 O   0  0  0  0  0  0  0  0  0  0  0  0
   -5.7012    5.3063  -15.7037 C   0  0  0  0  0  0  0  0  0  0  0  0
   -4.3894    5.8049  -15.4997 C   0  0  0  0  0  0  0  0  0  0  0  0
   -3.7774    6.2885  -14.2372 C   0  0  0  0  0  0  0  0  0  0  0  0
   -3.6734    5.8106  -16.6355 N   0  0  0  0  0  0  0  0  0  0  0  0
   -4.5332    5.3223  -17.5591 N   0  0  0  0  0  0  0  0  0  0  0  0
   -4.1338    5.2334  -18.9472 C   0  0  0  0  0  0  0  0  0  0  0  0
   -4.2231    6.5735  -19.6563 C   0  0  0  0  0  0  0  0  0  0  0  0
   -5.7553    4.9917  -17.0485 C   0  0  0  0  0  0  0  0  0  0  0  0
   -6.8036    4.4878  -17.7212 N   0  0  0  0  0  0  0  0  0  0  0  0
  1  2  1  0
  2  3  1  0
  3  4  2  0
  4  5  1  0
  5  6  1  0
  6  7  2  0
  6  8  1  0
  8  9  1  0
  9 10  2  0
 10 11  1  0
 11 12  2  0
 12 13  1  0
 13 14  2  0
 13 15  1  0
 15 16  1  0
 16 17  1  0
 17 18  1  0
 18 19  1  0
 19 20  1  0
 16 21  1  0
 21 22  2  0
  5 23  2  0
 23 24  1  0
 24 25  1  0
 24 26  2  0
 26 27  1  0
 27 28  1  0
 28 29  1  0
 27 30  1  0
 30 31  2  0
 31  3  1  0
 14  9  1  0
 30 23  1  0
 21 12  1  0
M  END
>  <name>  (241) 
P115844

>  <alias>  (241) 
None

>  <smina_score_min>  (241) 
-7.37

>  <exports>  (241) 
['/opt/xchem-fragalysis-2/maxwin/BulkDock/OUTPUTS/openbind_xx01zvns2b_c2_elabs_1LOUTNY.sdf', '/opt/xchem-fragalysis-2/maxwin/BulkDock/OUTPUTS/openbind_xx01zvns2b_c2_elabs_1LSYIIV.sdf']

>  <tags>  (241) 
syndirella_placed,openbind_xx01zvns2b_c2_elabs,openbind_xx01zvns2b_c2_elabs_scored_6.2plus,syndirella_product,openbind_xx01zvns2b_c2_elabs_scored,openbind_xx01zvns2b_c2_elabs_scored_top80percent,BulkDock Fragalysis export

>  <subsites>  (241) 
1 - Z4590/B/203/1

>  <smiles>  (241) 
CCc1cc(C(=O)Nc2ccc3c(c2)CN(CCOC)C3=O)c2c(C)nn(CC)c2n1

>  <HIPPO Pose ID>  (241) 
115844

>  <energy_score>  (241) 
-29.787767

>  <inchikey>  (241) 
KADTZYXTKQDTMP-UHFFFAOYSA-N

>  <gnina_score_min>  (241) 
6.345

>  <gnina_score>  (241) 
6.017

>  <ref_mols>  (241) 
Z3556a

>  <HIPPO Compound ID>  (241) 
178895

>  <distance_score>  (241) 
0.591174

>  <rmsd(smina/fragmenstein)>  (241) 
0.901

>  <ref_pdb>  (241) 
Z3556a

>  <inspiration_score>  (241) 
None

$$$$
P115853
     RDKit          3D

 31 34  0  0  0  0  0  0  0  0999 V2000
   -3.1836    4.6273  -21.9079 C   0  0  0  0  0  0  0  0  0  0  0  0
   -4.1350    5.7196  -21.4440 C   0  0  0  0  0  0  0  0  0  0  0  0
   -4.7800    5.4443  -20.0817 C   0  0  0  0  0  0  0  0  0  0  0  0
   -3.7529    5.2544  -18.9636 C   0  0  0  0  0  0  0  0  0  0  0  0
   -4.2364    5.3371  -17.5997 N   0  0  0  0  0  0  0  0  0  0  0  0
   -3.3469    5.6876  -16.6412 N   0  0  0  0  0  0  0  0  0  0  0  0
   -4.0688    5.7161  -15.5147 C   0  0  0  0  0  0  0  0  0  0  0  0
   -3.4129    6.0895  -14.2360 C   0  0  0  0  0  0  0  0  0  0  0  0
   -5.4203    5.3581  -15.7478 C   0  0  0  0  0  0  0  0  0  0  0  0
   -6.6025    5.2341  -15.0120 C   0  0  0  0  0  0  0  0  0  0  0  0
   -6.6469    5.7046  -13.6075 C   0  0  0  0  0  0  0  0  0  0  0  0
   -6.3223    6.8093  -13.4037 O   0  0  0  0  0  0  0  0  0  0  0  0
   -7.2239    4.6331  -12.6465 N   0  0  0  0  0  0  0  0  0  0  0  0
   -7.5964    4.7255  -11.3059 C   0  0  0  0  0  0  0  0  0  0  0  0
   -7.4569    5.9336  -10.6051 C   0  0  0  0  0  0  0  0  0  0  0  0
   -7.7908    6.0283   -9.2510 C   0  0  0  0  0  0  0  0  0  0  0  0
   -8.2598    4.8982   -8.6101 C   0  0  0  0  0  0  0  0  0  0  0  0
   -8.4473    3.7056   -9.3219 C   0  0  0  0  0  0  0  0  0  0  0  0
   -8.1263    3.5996  -10.6681 C   0  0  0  0  0  0  0  0  0  0  0  0
   -8.9416    2.6492   -8.3863 C   0  0  0  0  0  0  0  0  0  0  0  0
   -9.3173    3.4064   -7.1705 N   0  0  0  0  0  0  0  0  0  0  0  0
   -9.2999    2.5797   -5.9881 C   0  0  0  0  0  0  0  0  0  0  0  0
   -8.5094    4.6495   -7.1367 C   0  0  0  0  0  0  0  0  0  0  0  0
   -7.1218    4.5649   -6.4638 C   0  0  0  0  0  0  0  0  0  0  0  0
   -9.2825    5.7526   -6.3959 C   0  0  0  0  0  0  0  0  0  0  0  0
   -7.7556    4.8247  -15.6916 C   0  0  0  0  0  0  0  0  0  0  0  0
   -9.2307    4.7851  -14.8296 Cl  0  0  0  0  0  0  0  0  0  0  0  0
   -7.6948    4.5344  -17.0613 C   0  0  0  0  0  0  0  0  0  0  0  0
   -8.8926    4.0288  -17.8282 C   0  0  0  0  0  0  0  0  0  0  0  0
   -6.5674    4.6776  -17.7984 N   0  0  0  0  0  0  0  0  0  0  0  0
   -5.4882    5.0867  -17.1070 C   0  0  0  0  0  0  0  0  0  0  0  0
  1  2  1  0
  2  3  1  0
  3  4  1  0
  4  5  1  0
  5  6  1  0
  6  7  2  0
  7  8  1  0
  7  9  1  0
  9 10  2  0
 10 11  1  0
 11 12  2  0
 11 13  1  0
 13 14  1  0
 14 15  2  0
 15 16  1  0
 16 17  2  0
 17 18  1  0
 18 19  2  0
 18 20  1  0
 20 21  1  0
 21 22  1  0
 21 23  1  0
 23 24  1  0
 23 25  1  0
 10 26  1  0
 26 27  1  0
 26 28  2  0
 28 29  1  0
 28 30  1  0
 30 31  2  0
 31  5  1  0
 31  9  1  0
 19 14  1  0
 23 17  1  0
M  END
>  <name>  (242) 
P115853

>  <alias>  (242) 
None

>  <smina_score_min>  (242) 
-7.02

>  <exports>  (242) 
['/opt/xchem-fragalysis-2/maxwin/BulkDock/OUTPUTS/openbind_xx01zvns2b_c2_elabs_1LOUTNY.sdf', '/opt/xchem-fragalysis-2/maxwin/BulkDock/OUTPUTS/openbind_xx01zvns2b_c2_elabs_1LSYIIV.sdf']

>  <tags>  (242) 
syndirella_placed,openbind_xx01zvns2b_c2_elabs,openbind_xx01zvns2b_c2_elabs_scored_6.2plus,syndirella_product,openbind_xx01zvns2b_c2_elabs_scored,openbind_xx01zvns2b_c2_elabs_scored_top80percent,BulkDock Fragalysis export

>  <subsites>  (242) 
1 - Z4590/B/203/1

>  <smiles>  (242) 
CCCCn1nc(C)c2c(C(=O)Nc3ccc4c(c3)CN(C)C4(C)C)c(Cl)c(C)nc21

>  <HIPPO Pose ID>  (242) 
115853

>  <energy_score>  (242) 
-70.398478

>  <inchikey>  (242) 
LWLMGCLKFJWTNO-UHFFFAOYSA-N

>  <gnina_score_min>  (242) 
6.331

>  <gnina_score>  (242) 
6.346

>  <ref_mols>  (242) 
Z3556a

>  <HIPPO Compound ID>  (242) 
178905

>  <distance_score>  (242) 
0.851573

>  <rmsd(smina/fragmenstein)>  (242) 
0.463

>  <ref_pdb>  (242) 
Z3556a

>  <inspiration_score>  (242) 
None

$$$$
P115855
     RDKit          3D

 31 34  0  0  0  0  0  0  0  0999 V2000
   -2.5399    5.5883  -21.9337 C   0  0  0  0  0  0  0  0  0  0  0  0
   -3.7605    6.3658  -21.4639 C   0  0  0  0  0  0  0  0  0  0  0  0
   -3.8667    6.4797  -19.9410 C   0  0  0  0  0  0  0  0  0  0  0  0
   -3.9857    5.1217  -19.2540 C   0  0  0  0  0  0  0  0  0  0  0  0
   -4.3165    5.2316  -17.8499 N   0  0  0  0  0  0  0  0  0  0  0  0
   -3.3619    5.5484  -16.9488 N   0  0  0  0  0  0  0  0  0  0  0  0
   -4.0231    5.5681  -15.7802 C   0  0  0  0  0  0  0  0  0  0  0  0
   -3.2929    5.8950  -14.5294 C   0  0  0  0  0  0  0  0  0  0  0  0
   -5.3970    5.2455  -15.9438 C   0  0  0  0  0  0  0  0  0  0  0  0
   -6.5456    5.1195  -15.1605 C   0  0  0  0  0  0  0  0  0  0  0  0
   -6.5207    5.5270  -13.7431 C   0  0  0  0  0  0  0  0  0  0  0  0
   -6.1631    6.6132  -13.5004 O   0  0  0  0  0  0  0  0  0  0  0  0
   -7.0894    4.4255  -12.8132 N   0  0  0  0  0  0  0  0  0  0  0  0
   -7.4127    4.4632  -11.4608 C   0  0  0  0  0  0  0  0  0  0  0  0
   -7.3790    5.6874  -10.7734 C   0  0  0  0  0  0  0  0  0  0  0  0
   -7.7775    5.7706   -9.4438 C   0  0  0  0  0  0  0  0  0  0  0  0
   -8.1878    4.6105   -8.8214 C   0  0  0  0  0  0  0  0  0  0  0  0
   -8.2257    3.3894   -9.4888 C   0  0  0  0  0  0  0  0  0  0  0  0
   -7.8560    3.2981  -10.8216 C   0  0  0  0  0  0  0  0  0  0  0  0
   -8.7316    2.3342   -8.5527 C   0  0  0  0  0  0  0  0  0  0  0  0
   -8.8066    3.0052   -7.2305 N   0  0  0  0  0  0  0  0  0  0  0  0
   -9.9289    2.5586   -6.4255 C   0  0  0  0  0  0  0  0  0  0  0  0
  -10.2529    3.3931   -5.1782 C   0  0  0  0  0  0  0  0  0  0  0  0
   -9.0800    3.7754   -4.2876 C   0  0  0  0  0  0  0  0  0  0  0  0
   -8.6543    4.4438   -7.4205 C   0  0  0  0  0  0  0  0  0  0  0  0
   -7.7462    4.7718  -15.7974 C   0  0  0  0  0  0  0  0  0  0  0  0
   -9.1929    4.7817  -14.8815 Cl  0  0  0  0  0  0  0  0  0  0  0  0
   -7.7560    4.5168  -17.1750 C   0  0  0  0  0  0  0  0  0  0  0  0
   -8.9922    4.0433  -17.8977 C   0  0  0  0  0  0  0  0  0  0  0  0
   -6.6613    4.6571  -17.9586 N   0  0  0  0  0  0  0  0  0  0  0  0
   -5.5459    5.0171  -17.3003 C   0  0  0  0  0  0  0  0  0  0  0  0
  1  2  1  0
  2  3  1  0
  3  4  1  0
  4  5  1  0
  5  6  1  0
  6  7  2  0
  7  8  1  0
  7  9  1  0
  9 10  2  0
 10 11  1  0
 11 12  2  0
 11 13  1  0
 13 14  1  0
 14 15  2  0
 15 16  1  0
 16 17  2  0
 17 18  1  0
 18 19  2  0
 18 20  1  0
 20 21  1  0
 21 22  1  0
 22 23  1  0
 23 24  1  0
 21 25  1  0
 10 26  1  0
 26 27  1  0
 26 28  2  0
 28 29  1  0
 28 30  1  0
 30 31  2  0
 31  5  1  0
 31  9  1  0
 19 14  1  0
 25 17  1  0
M  END
>  <name>  (243) 
P115855

>  <alias>  (243) 
None

>  <smina_score_min>  (243) 
-6.997

>  <exports>  (243) 
['/opt/xchem-fragalysis-2/maxwin/BulkDock/OUTPUTS/openbind_xx01zvns2b_c2_elabs_1LOUTNY.sdf', '/opt/xchem-fragalysis-2/maxwin/BulkDock/OUTPUTS/openbind_xx01zvns2b_c2_elabs_1LSYIIV.sdf']

>  <tags>  (243) 
syndirella_placed,openbind_xx01zvns2b_c2_elabs,openbind_xx01zvns2b_c2_elabs_scored_6.2plus,syndirella_product,openbind_xx01zvns2b_c2_elabs_scored,openbind_xx01zvns2b_c2_elabs_scored_top80percent,BulkDock Fragalysis export

>  <subsites>  (243) 
1 - Z4590/B/203/1

>  <smiles>  (243) 
CCCCn1nc(C)c2c(C(=O)Nc3ccc4c(c3)CN(CCC)C4)c(Cl)c(C)nc21

>  <HIPPO Pose ID>  (243) 
115855

>  <energy_score>  (243) 
-51.655921

>  <inchikey>  (243) 
FYNDEBBQWIKCTA-UHFFFAOYSA-N

>  <gnina_score_min>  (243) 
6.444

>  <gnina_score>  (243) 
6.361

>  <ref_mols>  (243) 
Z3556a

>  <HIPPO Compound ID>  (243) 
178907

>  <distance_score>  (243) 
0.775897

>  <rmsd(smina/fragmenstein)>  (243) 
0.617

>  <ref_pdb>  (243) 
Z3556a

>  <inspiration_score>  (243) 
None

$$$$
P115891
     RDKit          3D

 32 36  0  0  0  0  0  0  0  0999 V2000
   -9.3114    3.0331  -18.1427 C   0  0  0  0  0  0  0  0  0  0  0  0
   -9.1036    4.4802  -17.8261 C   0  0  0  0  0  0  0  0  0  0  0  0
   -7.8555    4.7105  -17.0153 C   0  0  0  0  0  0  0  0  0  0  0  0
   -7.8632    4.5083  -15.6322 C   0  0  0  0  0  0  0  0  0  0  0  0
   -6.6664    4.6516  -14.9146 C   0  0  0  0  0  0  0  0  0  0  0  0
   -6.5773    4.1958  -13.5093 C   0  0  0  0  0  0  0  0  0  0  0  0
   -5.8690    3.3037  -13.2690 O   0  0  0  0  0  0  0  0  0  0  0  0
   -7.5542    4.9653  -12.6039 N   0  0  0  0  0  0  0  0  0  0  0  0
   -7.9222    4.7467  -11.2833 C   0  0  0  0  0  0  0  0  0  0  0  0
   -8.2428    5.8487  -10.4761 C   0  0  0  0  0  0  0  0  0  0  0  0
   -8.5277    5.6639   -9.1213 C   0  0  0  0  0  0  0  0  0  0  0  0
   -8.5864    4.3654   -8.6485 C   0  0  0  0  0  0  0  0  0  0  0  0
   -8.3441    3.2594   -9.4561 C   0  0  0  0  0  0  0  0  0  0  0  0
   -7.9594    3.4385  -10.7739 C   0  0  0  0  0  0  0  0  0  0  0  0
   -8.5603    2.0053   -8.6768 C   0  0  0  0  0  0  0  0  0  0  0  0
   -8.9164    2.5076   -7.3635 N   0  0  0  0  0  0  0  0  0  0  0  0
   -8.8821    3.8824   -7.2949 C   0  0  0  0  0  0  0  0  0  0  0  0
   -9.0328    4.5851   -6.3136 O   0  0  0  0  0  0  0  0  0  0  0  0
   -5.5095    5.0066  -15.6201 C   0  0  0  0  0  0  0  0  0  0  0  0
   -4.1232    5.2007  -15.3721 C   0  0  0  0  0  0  0  0  0  0  0  0
   -3.3999    5.1087  -14.0785 C   0  0  0  0  0  0  0  0  0  0  0  0
   -3.4396    5.4620  -16.4988 N   0  0  0  0  0  0  0  0  0  0  0  0
   -4.3865    5.4027  -17.4668 N   0  0  0  0  0  0  0  0  0  0  0  0
   -4.0069    5.3968  -18.8684 C   0  0  0  0  0  0  0  0  0  0  0  0
   -4.0273    6.7754  -19.4813 C   0  0  0  0  0  0  0  0  0  0  0  0
   -3.0897    7.7453  -19.0963 C   0  0  0  0  0  0  0  0  0  0  0  0
   -3.0843    9.0043  -19.6983 C   0  0  0  0  0  0  0  0  0  0  0  0
   -4.0090    9.3047  -20.6965 C   0  0  0  0  0  0  0  0  0  0  0  0
   -4.9477    8.3508  -21.0847 C   0  0  0  0  0  0  0  0  0  0  0  0
   -4.9658    7.0961  -20.4731 C   0  0  0  0  0  0  0  0  0  0  0  0
   -5.6449    5.1779  -16.9877 C   0  0  0  0  0  0  0  0  0  0  0  0
   -6.7634    5.0680  -17.7226 N   0  0  0  0  0  0  0  0  0  0  0  0
  1  2  1  0
  2  3  1  0
  3  4  2  0
  4  5  1  0
  5  6  1  0
  6  7  2  0
  6  8  1  0
  8  9  1  0
  9 10  2  0
 10 11  1  0
 11 12  2  0
 12 13  1  0
 13 14  2  0
 13 15  1  0
 15 16  1  0
 16 17  1  0
 17 18  2  0
  5 19  2  0
 19 20  1  0
 20 21  1  0
 20 22  2  0
 22 23  1  0
 23 24  1  0
 24 25  1  0
 25 26  2  0
 26 27  1  0
 27 28  2  0
 28 29  1  0
 29 30  2  0
 23 31  1  0
 31 32  2  0
 32  3  1  0
 14  9  1  0
 31 19  1  0
 17 12  1  0
 30 25  1  0
M  END
>  <name>  (244) 
P115891

>  <alias>  (244) 
None

>  <smina_score_min>  (244) 
-7.993

>  <exports>  (244) 
['/opt/xchem-fragalysis-2/maxwin/BulkDock/OUTPUTS/openbind_xx01zvns2b_c2_elabs_1LOUTNY.sdf', '/opt/xchem-fragalysis-2/maxwin/BulkDock/OUTPUTS/openbind_xx01zvns2b_c2_elabs_1LSYIIV.sdf']

>  <tags>  (244) 
syndirella_placed,openbind_xx01zvns2b_c2_elabs,openbind_xx01zvns2b_c2_elabs_scored_6.2plus,syndirella_product,openbind_xx01zvns2b_c2_elabs_scored,openbind_xx01zvns2b_c2_elabs_scored_top80percent,BulkDock Fragalysis export

>  <subsites>  (244) 
1 - Z4590/B/203/1

>  <smiles>  (244) 
CCc1cc(C(=O)Nc2ccc3c(c2)CNC3=O)c2c(C)nn(Cc3ccccc3)c2n1

>  <HIPPO Pose ID>  (244) 
115891

>  <energy_score>  (244) 
-13.492047

>  <inchikey>  (244) 
MRXOLKRPRKEKKC-UHFFFAOYSA-N

>  <gnina_score_min>  (244) 
6.325

>  <gnina_score>  (244) 
6.28

>  <ref_mols>  (244) 
Z3556a

>  <HIPPO Compound ID>  (244) 
178970

>  <distance_score>  (244) 
0.838119

>  <rmsd(smina/fragmenstein)>  (244) 
0.477

>  <ref_pdb>  (244) 
Z3556a

>  <inspiration_score>  (244) 
None

$$$$
P115912
     RDKit          3D

 32 36  0  0  0  0  0  0  0  0999 V2000
   -3.6445    6.2475  -14.8647 C   0  0  0  0  0  0  0  0  0  0  0  0
   -4.4243    5.8164  -16.0512 C   0  0  0  0  0  0  0  0  0  0  0  0
   -3.8069    5.6649  -17.2309 N   0  0  0  0  0  0  0  0  0  0  0  0
   -4.7983    5.2754  -18.0652 N   0  0  0  0  0  0  0  0  0  0  0  0
   -4.5178    5.1153  -19.4658 C   0  0  0  0  0  0  0  0  0  0  0  0
   -6.0145    5.1340  -17.4593 C   0  0  0  0  0  0  0  0  0  0  0  0
   -7.1690    4.7130  -18.0225 N   0  0  0  0  0  0  0  0  0  0  0  0
   -8.2192    4.6589  -17.1747 C   0  0  0  0  0  0  0  0  0  0  0  0
   -9.5307    4.0360  -17.6168 C   0  0  0  0  0  0  0  0  0  0  0  0
  -10.4487    4.7379  -18.5701 C   0  0  0  0  0  0  0  0  0  0  0  0
   -9.3192    2.6513  -18.1282 C   0  0  0  0  0  0  0  0  0  0  0  0
   -8.1438    5.0697  -15.8472 C   0  0  0  0  0  0  0  0  0  0  0  0
   -6.9312    5.5149  -15.3239 C   0  0  0  0  0  0  0  0  0  0  0  0
   -6.8663    5.9537  -13.9248 C   0  0  0  0  0  0  0  0  0  0  0  0
   -6.4022    6.9849  -13.6464 O   0  0  0  0  0  0  0  0  0  0  0  0
   -7.5282    4.8855  -13.0376 N   0  0  0  0  0  0  0  0  0  0  0  0
   -7.6686    4.8204  -11.6673 C   0  0  0  0  0  0  0  0  0  0  0  0
   -7.2491    5.8611  -10.8148 C   0  0  0  0  0  0  0  0  0  0  0  0
   -7.3342    5.7265   -9.4246 C   0  0  0  0  0  0  0  0  0  0  0  0
   -7.8474    4.5441   -8.9455 C   0  0  0  0  0  0  0  0  0  0  0  0
   -8.3049    3.5650   -9.8011 C   0  0  0  0  0  0  0  0  0  0  0  0
   -8.2349    3.6579  -11.1649 C   0  0  0  0  0  0  0  0  0  0  0  0
   -8.8745    2.5123   -9.0086 C   0  0  0  0  0  0  0  0  0  0  0  0
   -9.5610    1.6444   -9.4973 O   0  0  0  0  0  0  0  0  0  0  0  0
   -8.5968    2.8159   -7.7178 N   0  0  0  0  0  0  0  0  0  0  0  0
   -9.1187    2.0349   -6.6430 C   0  0  0  0  0  0  0  0  0  0  0  0
  -10.4638    2.5832   -6.3385 C   0  0  0  0  0  0  0  0  0  0  0  0
  -11.2399    2.1988   -5.1321 C   0  0  0  0  0  0  0  0  0  0  0  0
  -10.5567    3.5432   -5.1947 C   0  0  0  0  0  0  0  0  0  0  0  0
   -8.0348    4.0533   -7.5847 C   0  0  0  0  0  0  0  0  0  0  0  0
   -7.7398    4.6996   -6.5956 O   0  0  0  0  0  0  0  0  0  0  0  0
   -5.8095    5.5252  -16.1452 C   0  0  0  0  0  0  0  0  0  0  0  0
  1  2  1  0
  2  3  2  0
  3  4  1  0
  4  5  1  0
  4  6  1  0
  6  7  2  0
  7  8  1  0
  8  9  1  0
  9 10  1  0
  9 11  1  0
  8 12  2  0
 12 13  1  0
 13 14  1  0
 14 15  2  0
 14 16  1  0
 16 17  1  0
 17 18  2  0
 18 19  1  0
 19 20  2  0
 20 21  1  0
 21 22  2  0
 21 23  1  0
 23 24  2  0
 23 25  1  0
 25 26  1  0
 26 27  1  0
 27 28  1  0
 28 29  1  0
 25 30  1  0
 30 31  2  0
 13 32  2  0
 32  2  1  0
 32  6  1  0
 22 17  1  0
 29 27  1  0
 30 20  1  0
M  END
>  <name>  (245) 
P115912

>  <alias>  (245) 
None

>  <smina_score_min>  (245) 
-7.353

>  <exports>  (245) 
['/opt/xchem-fragalysis-2/maxwin/BulkDock/OUTPUTS/openbind_xx01zvns2b_c2_elabs_1LOUTNY.sdf', '/opt/xchem-fragalysis-2/maxwin/BulkDock/OUTPUTS/openbind_xx01zvns2b_c2_elabs_1LSYIIV.sdf']

>  <tags>  (245) 
syndirella_placed,openbind_xx01zvns2b_c2_elabs,openbind_xx01zvns2b_c2_elabs_scored_6.2plus,syndirella_product,openbind_xx01zvns2b_c2_elabs_scored,openbind_xx01zvns2b_c2_elabs_scored_top80percent,BulkDock Fragalysis export

>  <subsites>  (245) 
1 - Z4590/B/203/1

>  <smiles>  (245) 
Cc1nn(C)c2nc(C(C)C)cc(C(=O)Nc3ccc4c(c3)C(=O)N(CC3CC3)C4=O)c12

>  <HIPPO Pose ID>  (245) 
115912

>  <energy_score>  (245) 
-39.472626

>  <inchikey>  (245) 
OMXMLIJWRDJSHS-UHFFFAOYSA-N

>  <gnina_score_min>  (245) 
6.212

>  <gnina_score>  (245) 
6.221

>  <ref_mols>  (245) 
Z3556a

>  <HIPPO Compound ID>  (245) 
179007

>  <distance_score>  (245) 
0.85725

>  <rmsd(smina/fragmenstein)>  (245) 
1.32

>  <ref_pdb>  (245) 
Z3556a

>  <inspiration_score>  (245) 
None

$$$$
P115918
     RDKit          3D

 32 36  0  0  0  0  0  0  0  0999 V2000
   -2.9961    6.4667  -13.3921 C   0  0  0  0  0  0  0  0  0  0  0  0
   -3.5166    6.0219  -14.7101 C   0  0  0  0  0  0  0  0  0  0  0  0
   -2.7019    6.0298  -15.7830 N   0  0  0  0  0  0  0  0  0  0  0  0
   -3.4830    5.5869  -16.7843 N   0  0  0  0  0  0  0  0  0  0  0  0
   -2.9892    5.4523  -18.1337 C   0  0  0  0  0  0  0  0  0  0  0  0
   -4.7421    5.2890  -16.3800 C   0  0  0  0  0  0  0  0  0  0  0  0
   -5.7040    4.8365  -17.1763 N   0  0  0  0  0  0  0  0  0  0  0  0
   -6.8525    4.5928  -16.5314 C   0  0  0  0  0  0  0  0  0  0  0  0
   -7.8671    4.1648  -17.4229 C   0  0  0  0  0  0  0  0  0  0  0  0
   -7.7882    3.9666  -18.8069 C   0  0  0  0  0  0  0  0  0  0  0  0
   -8.9895    3.7435  -19.3138 N   0  0  0  0  0  0  0  0  0  0  0  0
   -9.8007    3.9690  -18.2846 N   0  0  0  0  0  0  0  0  0  0  0  0
  -11.0815    4.5501  -18.5140 C   0  0  0  0  0  0  0  0  0  0  0  0
   -9.1748    3.9649  -17.0878 C   0  0  0  0  0  0  0  0  0  0  0  0
   -7.0939    4.8128  -15.1843 C   0  0  0  0  0  0  0  0  0  0  0  0
   -6.0564    5.3147  -14.4013 C   0  0  0  0  0  0  0  0  0  0  0  0
   -6.3521    5.7363  -13.0158 C   0  0  0  0  0  0  0  0  0  0  0  0
   -6.0110    6.8061  -12.6906 O   0  0  0  0  0  0  0  0  0  0  0  0
   -7.1821    4.6693  -12.2519 N   0  0  0  0  0  0  0  0  0  0  0  0
   -7.6640    4.6633  -10.9428 C   0  0  0  0  0  0  0  0  0  0  0  0
   -7.6495    5.8404  -10.1813 C   0  0  0  0  0  0  0  0  0  0  0  0
   -8.0333    5.8336   -8.8374 C   0  0  0  0  0  0  0  0  0  0  0  0
   -8.4208    4.6344   -8.2634 C   0  0  0  0  0  0  0  0  0  0  0  0
   -8.4926    3.4760   -9.0379 C   0  0  0  0  0  0  0  0  0  0  0  0
   -8.1398    3.4727  -10.3843 C   0  0  0  0  0  0  0  0  0  0  0  0
   -8.9229    2.3282   -8.1836 C   0  0  0  0  0  0  0  0  0  0  0  0
   -8.9803    2.8540   -6.7983 N   0  0  0  0  0  0  0  0  0  0  0  0
  -10.1769    2.4208   -6.1031 C   0  0  0  0  0  0  0  0  0  0  0  0
   -8.6487    4.3003   -6.8043 C   0  0  0  0  0  0  0  0  0  0  0  0
   -9.6377    5.2320   -6.0810 C   0  0  0  0  0  0  0  0  0  0  0  0
   -7.2970    4.4750   -6.0735 C   0  0  0  0  0  0  0  0  0  0  0  0
   -4.8193    5.5531  -15.0240 C   0  0  0  0  0  0  0  0  0  0  0  0
  1  2  1  0
  2  3  2  0
  3  4  1  0
  4  5  1  0
  4  6  1  0
  6  7  2  0
  7  8  1  0
  8  9  1  0
  9 10  1  0
 10 11  2  0
 11 12  1  0
 12 13  1  0
 12 14  1  0
  8 15  2  0
 15 16  1  0
 16 17  1  0
 17 18  2  0
 17 19  1  0
 19 20  1  0
 20 21  2  0
 21 22  1  0
 22 23  2  0
 23 24  1  0
 24 25  2  0
 24 26  1  0
 26 27  1  0
 27 28  1  0
 27 29  1  0
 29 30  1  0
 29 31  1  0
 16 32  2  0
 32  2  1  0
 32  6  1  0
 14  9  2  0
 25 20  1  0
 29 23  1  0
M  END
>  <name>  (246) 
P115918

>  <alias>  (246) 
None

>  <smina_score_min>  (246) 
-7.303

>  <exports>  (246) 
['/opt/xchem-fragalysis-2/maxwin/BulkDock/OUTPUTS/openbind_xx01zvns2b_c2_elabs_1LOUTNY.sdf', '/opt/xchem-fragalysis-2/maxwin/BulkDock/OUTPUTS/openbind_xx01zvns2b_c2_elabs_1LSYIIV.sdf']

>  <tags>  (246) 
syndirella_placed,openbind_xx01zvns2b_c2_elabs,openbind_xx01zvns2b_c2_elabs_scored_6.2plus,syndirella_product,openbind_xx01zvns2b_c2_elabs_scored,openbind_xx01zvns2b_c2_elabs_scored_top80percent,BulkDock Fragalysis export

>  <subsites>  (246) 
1 - Z4590/B/203/1

>  <smiles>  (246) 
Cc1nn(C)c2nc(-c3cnn(C)c3)cc(C(=O)Nc3ccc4c(c3)CN(C)C4(C)C)c12

>  <HIPPO Pose ID>  (246) 
115918

>  <energy_score>  (246) 
-85.520477

>  <inchikey>  (246) 
COLDYNCSEVXJIJ-UHFFFAOYSA-N

>  <gnina_score_min>  (246) 
6.238

>  <gnina_score>  (246) 
6.346

>  <ref_mols>  (246) 
Z3556a

>  <HIPPO Compound ID>  (246) 
179021

>  <distance_score>  (246) 
1.268509

>  <rmsd(smina/fragmenstein)>  (246) 
0.926

>  <ref_pdb>  (246) 
Z3556a

>  <inspiration_score>  (246) 
None

$$$$
P115920
     RDKit          3D

 32 36  0  0  0  0  0  0  0  0999 V2000
  -10.7719    2.3981   -5.6896 C   0  0  0  0  0  0  0  0  0  0  0  0
   -9.6399    1.8717   -6.5521 C   0  0  0  0  0  0  0  0  0  0  0  0
   -9.3229    2.7232   -7.6696 N   0  0  0  0  0  0  0  0  0  0  0  0
   -8.8350    2.1395   -8.9081 C   0  0  0  0  0  0  0  0  0  0  0  0
   -8.3755    3.3360   -9.6671 C   0  0  0  0  0  0  0  0  0  0  0  0
   -7.9476    3.4551  -10.9780 C   0  0  0  0  0  0  0  0  0  0  0  0
   -7.5273    4.7188  -11.4140 C   0  0  0  0  0  0  0  0  0  0  0  0
   -7.0726    4.8714  -12.7192 N   0  0  0  0  0  0  0  0  0  0  0  0
   -6.4533    6.0955  -13.4291 C   0  0  0  0  0  0  0  0  0  0  0  0
   -6.2983    7.1894  -13.0537 O   0  0  0  0  0  0  0  0  0  0  0  0
   -6.1140    5.7936  -14.8180 C   0  0  0  0  0  0  0  0  0  0  0  0
   -7.1354    5.5395  -15.7316 C   0  0  0  0  0  0  0  0  0  0  0  0
   -6.7765    5.3911  -17.0635 C   0  0  0  0  0  0  0  0  0  0  0  0
   -7.6322    4.8068  -18.0362 C   0  0  0  0  0  0  0  0  0  0  0  0
   -7.2145    4.1912  -19.2313 C   0  0  0  0  0  0  0  0  0  0  0  0
   -8.0641    3.2438  -19.5938 N   0  0  0  0  0  0  0  0  0  0  0  0
   -9.0238    3.3302  -18.6728 N   0  0  0  0  0  0  0  0  0  0  0  0
   -9.6971    2.1482  -18.2542 C   0  0  0  0  0  0  0  0  0  0  0  0
   -8.9019    4.3660  -17.8056 C   0  0  0  0  0  0  0  0  0  0  0  0
   -5.5378    5.5167  -17.5565 N   0  0  0  0  0  0  0  0  0  0  0  0
   -4.6076    5.6511  -16.6218 C   0  0  0  0  0  0  0  0  0  0  0  0
   -4.7894    5.7978  -15.2642 C   0  0  0  0  0  0  0  0  0  0  0  0
   -3.4695    5.9137  -14.7620 C   0  0  0  0  0  0  0  0  0  0  0  0
   -3.0475    6.1178  -13.3532 C   0  0  0  0  0  0  0  0  0  0  0  0
   -2.5436    5.7927  -15.7341 N   0  0  0  0  0  0  0  0  0  0  0  0
   -3.2751    5.6306  -16.8525 N   0  0  0  0  0  0  0  0  0  0  0  0
   -2.6748    5.4139  -18.1448 C   0  0  0  0  0  0  0  0  0  0  0  0
   -7.5640    5.8304  -10.5496 C   0  0  0  0  0  0  0  0  0  0  0  0
   -8.0091    5.7035   -9.2368 C   0  0  0  0  0  0  0  0  0  0  0  0
   -8.4009    4.4486   -8.8298 C   0  0  0  0  0  0  0  0  0  0  0  0
   -8.9211    4.0395   -7.5267 C   0  0  0  0  0  0  0  0  0  0  0  0
   -8.9666    4.7728   -6.5563 O   0  0  0  0  0  0  0  0  0  0  0  0
  1  2  1  0
  2  3  1  0
  3  4  1  0
  4  5  1  0
  5  6  2  0
  6  7  1  0
  7  8  1  0
  8  9  1  0
  9 10  2  0
  9 11  1  0
 11 12  2  0
 12 13  1  0
 13 14  1  0
 14 15  1  0
 15 16  2  0
 16 17  1  0
 17 18  1  0
 17 19  1  0
 13 20  2  0
 20 21  1  0
 21 22  2  0
 22 23  1  0
 23 24  1  0
 23 25  2  0
 25 26  1  0
 26 27  1  0
  7 28  2  0
 28 29  1  0
 29 30  2  0
 30 31  1  0
 31 32  2  0
 31  3  1  0
 30  5  1  0
 22 11  1  0
 19 14  2  0
 26 21  1  0
M  END
>  <name>  (247) 
P115920

>  <alias>  (247) 
None

>  <smina_score_min>  (247) 
-6.644

>  <exports>  (247) 
['/opt/xchem-fragalysis-2/maxwin/BulkDock/OUTPUTS/openbind_xx01zvns2b_c2_elabs_1LOUTNY.sdf', '/opt/xchem-fragalysis-2/maxwin/BulkDock/OUTPUTS/openbind_xx01zvns2b_c2_elabs_1LSYIIV.sdf']

>  <tags>  (247) 
syndirella_placed,openbind_xx01zvns2b_c2_elabs,openbind_xx01zvns2b_c2_elabs_scored_6.2plus,syndirella_product,openbind_xx01zvns2b_c2_elabs_scored,openbind_xx01zvns2b_c2_elabs_scored_top80percent,BulkDock Fragalysis export

>  <subsites>  (247) 
1 - Z4590/B/203/1

>  <smiles>  (247) 
CCN1Cc2cc(NC(=O)c3cc(-c4cnn(C)c4)nc4c3c(C)nn4C)ccc2C1=O

>  <HIPPO Pose ID>  (247) 
115920

>  <energy_score>  (247) 
-5.392208

>  <inchikey>  (247) 
XDBBOAVGFFJAOF-UHFFFAOYSA-N

>  <gnina_score_min>  (247) 
6.267

>  <gnina_score>  (247) 
6.12

>  <ref_mols>  (247) 
Z3556a

>  <HIPPO Compound ID>  (247) 
179027

>  <distance_score>  (247) 
1.348528

>  <rmsd(smina/fragmenstein)>  (247) 
0.666

>  <ref_pdb>  (247) 
Z3556a

>  <inspiration_score>  (247) 
None

$$$$
P115922
     RDKit          3D

 32 35  0  0  0  0  0  0  0  0999 V2000
  -10.6992    3.2961   -4.5835 C   0  0  0  0  0  0  0  0  0  0  0  0
  -11.4704    2.2311   -5.3426 C   0  0  0  0  0  0  0  0  0  0  0  0
  -10.6056    1.2044   -5.7674 O   0  0  0  0  0  0  0  0  0  0  0  0
   -9.8694    1.4031   -6.9580 C   0  0  0  0  0  0  0  0  0  0  0  0
   -9.5591    2.8288   -7.3564 C   0  0  0  0  0  0  0  0  0  0  0  0
   -8.3622    3.3806   -6.5778 C   0  0  0  0  0  0  0  0  0  0  0  0
   -7.3640    4.0891   -7.3693 N   0  0  0  0  0  0  0  0  0  0  0  0
   -7.8668    5.4198   -7.7554 C   0  0  0  0  0  0  0  0  0  0  0  0
   -8.0427    5.3731   -9.2257 C   0  0  0  0  0  0  0  0  0  0  0  0
   -8.4571    6.3854  -10.0538 C   0  0  0  0  0  0  0  0  0  0  0  0
   -8.3778    6.1499  -11.4165 C   0  0  0  0  0  0  0  0  0  0  0  0
   -7.9548    4.9028  -11.9117 C   0  0  0  0  0  0  0  0  0  0  0  0
   -7.6907    4.7755  -13.2564 N   0  0  0  0  0  0  0  0  0  0  0  0
   -7.4006    5.8381  -14.3167 C   0  0  0  0  0  0  0  0  0  0  0  0
   -7.4126    6.9981  -14.2447 O   0  0  0  0  0  0  0  0  0  0  0  0
   -7.0493    5.2162  -15.5821 C   0  0  0  0  0  0  0  0  0  0  0  0
   -8.0199    4.5282  -16.2975 C   0  0  0  0  0  0  0  0  0  0  0  0
   -7.7068    4.1429  -17.5913 C   0  0  0  0  0  0  0  0  0  0  0  0
   -8.7736    3.5127  -18.4464 C   0  0  0  0  0  0  0  0  0  0  0  0
   -9.7316    4.5833  -18.8758 C   0  0  0  0  0  0  0  0  0  0  0  0
   -6.5223    4.3919  -18.2071 N   0  0  0  0  0  0  0  0  0  0  0  0
   -5.6115    5.0044  -17.4313 C   0  0  0  0  0  0  0  0  0  0  0  0
   -5.7840    5.4293  -16.1294 C   0  0  0  0  0  0  0  0  0  0  0  0
   -4.5444    6.0108  -15.7633 C   0  0  0  0  0  0  0  0  0  0  0  0
   -4.1658    6.6301  -14.4687 C   0  0  0  0  0  0  0  0  0  0  0  0
   -3.6593    5.9690  -16.7706 N   0  0  0  0  0  0  0  0  0  0  0  0
   -4.3426    5.3759  -17.7776 N   0  0  0  0  0  0  0  0  0  0  0  0
   -3.7688    5.3126  -19.1043 C   0  0  0  0  0  0  0  0  0  0  0  0
   -2.3650    4.7311  -19.1466 C   0  0  0  0  0  0  0  0  0  0  0  0
   -7.6392    3.8498  -11.0695 C   0  0  0  0  0  0  0  0  0  0  0  0
   -7.6212    4.1434   -9.7259 C   0  0  0  0  0  0  0  0  0  0  0  0
   -7.0369    3.3447   -8.6198 C   0  0  0  0  0  0  0  0  0  0  0  0
  1  2  1  0
  2  3  1  0
  3  4  1  0
  4  5  1  0
  5  6  1  0
  6  7  1  0
  7  8  1  0
  8  9  1  0
  9 10  2  0
 10 11  1  0
 11 12  2  0
 12 13  1  0
 13 14  1  0
 14 15  2  0
 14 16  1  0
 16 17  2  0
 17 18  1  0
 18 19  1  0
 19 20  1  0
 18 21  2  0
 21 22  1  0
 22 23  2  0
 23 24  1  0
 24 25  1  0
 24 26  2  0
 26 27  1  0
 27 28  1  0
 28 29  1  0
 12 30  1  0
 30 31  2  0
 31 32  1  0
 32  7  1  0
 31  9  1  0
 23 16  1  0
 27 22  1  0
M  END
>  <name>  (248) 
P115922

>  <alias>  (248) 
None

>  <smina_score_min>  (248) 
-6.553

>  <exports>  (248) 
['/opt/xchem-fragalysis-2/maxwin/BulkDock/OUTPUTS/openbind_xx01zvns2b_c2_elabs_1LOUTNY.sdf', '/opt/xchem-fragalysis-2/maxwin/BulkDock/OUTPUTS/openbind_xx01zvns2b_c2_elabs_1LSYIIV.sdf']

>  <tags>  (248) 
syndirella_placed,openbind_xx01zvns2b_c2_elabs,openbind_xx01zvns2b_c2_elabs_scored_6.2plus,syndirella_product,openbind_xx01zvns2b_c2_elabs_scored,openbind_xx01zvns2b_c2_elabs_scored_top80percent,BulkDock Fragalysis export

>  <subsites>  (248) 
1 - Z4590/B/203/1

>  <smiles>  (248) 
CCOCCCN1Cc2ccc(NC(=O)c3cc(CC)nc4c3c(C)nn4CC)cc2C1

>  <HIPPO Pose ID>  (248) 
115922

>  <energy_score>  (248) 
-20.743117

>  <inchikey>  (248) 
WZKFGAFOEWFFQG-UHFFFAOYSA-N

>  <gnina_score_min>  (248) 
6.408

>  <gnina_score>  (248) 
6.121

>  <ref_mols>  (248) 
Z3556a

>  <HIPPO Compound ID>  (248) 
179032

>  <distance_score>  (248) 
1.253404

>  <rmsd(smina/fragmenstein)>  (248) 
0.991

>  <ref_pdb>  (248) 
Z3556a

>  <inspiration_score>  (248) 
None

$$$$
P115930
     RDKit          3D

 32 36  0  0  0  0  0  0  0  0999 V2000
   -3.8386    7.7616  -19.5259 C   0  0  0  0  0  0  0  0  0  0  0  0
   -4.6583    6.5735  -20.0067 C   0  0  0  0  0  0  0  0  0  0  0  0
   -4.3084    5.2670  -19.2926 C   0  0  0  0  0  0  0  0  0  0  0  0
   -4.6808    5.2542  -17.8957 N   0  0  0  0  0  0  0  0  0  0  0  0
   -3.7770    5.5873  -16.9488 N   0  0  0  0  0  0  0  0  0  0  0  0
   -4.4862    5.5558  -15.8102 C   0  0  0  0  0  0  0  0  0  0  0  0
   -3.8100    5.8735  -14.5273 C   0  0  0  0  0  0  0  0  0  0  0  0
   -5.8442    5.1909  -16.0395 C   0  0  0  0  0  0  0  0  0  0  0  0
   -7.0353    5.0313  -15.3129 C   0  0  0  0  0  0  0  0  0  0  0  0
   -7.0672    5.5249  -13.9273 C   0  0  0  0  0  0  0  0  0  0  0  0
   -6.6360    6.5968  -13.7559 O   0  0  0  0  0  0  0  0  0  0  0  0
   -7.5829    4.4792  -12.9140 N   0  0  0  0  0  0  0  0  0  0  0  0
   -7.5879    4.4951  -11.5217 C   0  0  0  0  0  0  0  0  0  0  0  0
   -6.8618    5.5163  -10.8675 C   0  0  0  0  0  0  0  0  0  0  0  0
   -6.7807    5.5847   -9.4800 C   0  0  0  0  0  0  0  0  0  0  0  0
   -7.4773    4.6366   -8.7751 C   0  0  0  0  0  0  0  0  0  0  0  0
   -8.2395    3.6763   -9.3983 C   0  0  0  0  0  0  0  0  0  0  0  0
   -8.2886    3.5432  -10.7806 C   0  0  0  0  0  0  0  0  0  0  0  0
   -9.1053    3.1290   -8.3651 C   0  0  0  0  0  0  0  0  0  0  0  0
  -10.0993    2.5161   -8.6897 O   0  0  0  0  0  0  0  0  0  0  0  0
   -8.7198    3.6544   -7.1543 N   0  0  0  0  0  0  0  0  0  0  0  0
   -9.5945    3.8764   -6.0239 C   0  0  0  0  0  0  0  0  0  0  0  0
  -10.1923    2.6995   -5.3523 C   0  0  0  0  0  0  0  0  0  0  0  0
  -10.5401    1.3838   -5.9871 C   0  0  0  0  0  0  0  0  0  0  0  0
  -11.6222    2.3490   -5.6736 C   0  0  0  0  0  0  0  0  0  0  0  0
   -7.7333    4.5818   -7.3491 C   0  0  0  0  0  0  0  0  0  0  0  0
   -7.2058    5.3445   -6.5560 O   0  0  0  0  0  0  0  0  0  0  0  0
   -8.1767    4.5777  -15.9793 C   0  0  0  0  0  0  0  0  0  0  0  0
   -8.1056    4.3700  -17.3584 C   0  0  0  0  0  0  0  0  0  0  0  0
   -9.3194    3.9228  -18.1212 C   0  0  0  0  0  0  0  0  0  0  0  0
   -6.9921    4.5616  -18.0999 N   0  0  0  0  0  0  0  0  0  0  0  0
   -5.9177    4.9591  -17.3990 C   0  0  0  0  0  0  0  0  0  0  0  0
  1  2  1  0
  2  3  1  0
  3  4  1  0
  4  5  1  0
  5  6  2  0
  6  7  1  0
  6  8  1  0
  8  9  2  0
  9 10  1  0
 10 11  2  0
 10 12  1  0
 12 13  1  0
 13 14  2  0
 14 15  1  0
 15 16  2  0
 16 17  1  0
 17 18  2  0
 17 19  1  0
 19 20  2  0
 19 21  1  0
 21 22  1  0
 22 23  1  0
 23 24  1  0
 24 25  1  0
 21 26  1  0
 26 27  2  0
  9 28  1  0
 28 29  2  0
 29 30  1  0
 29 31  1  0
 31 32  2  0
 32  4  1  0
 32  8  1  0
 18 13  1  0
 25 23  1  0
 26 16  1  0
M  END
>  <name>  (249) 
P115930

>  <alias>  (249) 
None

>  <smina_score_min>  (249) 
-7.873

>  <exports>  (249) 
['/opt/xchem-fragalysis-2/maxwin/BulkDock/OUTPUTS/openbind_xx01zvns2b_c2_elabs_1LOUTNY.sdf', '/opt/xchem-fragalysis-2/maxwin/BulkDock/OUTPUTS/openbind_xx01zvns2b_c2_elabs_1LSYIIV.sdf']

>  <tags>  (249) 
syndirella_placed,openbind_xx01zvns2b_c2_elabs,openbind_xx01zvns2b_c2_elabs_scored_6.2plus,syndirella_product,openbind_xx01zvns2b_c2_elabs_scored,openbind_xx01zvns2b_c2_elabs_scored_top80percent,BulkDock Fragalysis export

>  <subsites>  (249) 
1 - Z4590/B/203/1

>  <smiles>  (249) 
CCCn1nc(C)c2c(C(=O)Nc3ccc4c(c3)C(=O)N(CC3CC3)C4=O)cc(C)nc21

>  <HIPPO Pose ID>  (249) 
115930

>  <energy_score>  (249) 
-28.475427

>  <inchikey>  (249) 
HXJDRRDEYPRXMA-UHFFFAOYSA-N

>  <gnina_score_min>  (249) 
6.286

>  <gnina_score>  (249) 
6.257

>  <ref_mols>  (249) 
Z3556a

>  <HIPPO Compound ID>  (249) 
179045

>  <distance_score>  (249) 
0.880711

>  <rmsd(smina/fragmenstein)>  (249) 
0.833

>  <ref_pdb>  (249) 
Z3556a

>  <inspiration_score>  (249) 
None

$$$$
P115932
     RDKit          3D

 32 36  0  0  0  0  0  0  0  0999 V2000
   -2.5532    6.2141  -13.7253 C   0  0  0  0  0  0  0  0  0  0  0  0
   -3.2257    5.8461  -14.9973 C   0  0  0  0  0  0  0  0  0  0  0  0
   -2.5146    5.8030  -16.1400 N   0  0  0  0  0  0  0  0  0  0  0  0
   -3.4221    5.4551  -17.0708 N   0  0  0  0  0  0  0  0  0  0  0  0
   -3.0483    5.3053  -18.4547 C   0  0  0  0  0  0  0  0  0  0  0  0
   -4.6624    5.2568  -16.5614 C   0  0  0  0  0  0  0  0  0  0  0  0
   -5.7252    4.8846  -17.2759 N   0  0  0  0  0  0  0  0  0  0  0  0
   -6.8335    4.7515  -16.5408 C   0  0  0  0  0  0  0  0  0  0  0  0
   -7.9991    4.3396  -17.2731 C   0  0  0  0  0  0  0  0  0  0  0  0
   -8.1718    4.5197  -18.6356 C   0  0  0  0  0  0  0  0  0  0  0  0
   -9.4415    4.3857  -19.1706 C   0  0  0  0  0  0  0  0  0  0  0  0
  -10.4728    4.1015  -18.3362 C   0  0  0  0  0  0  0  0  0  0  0  0
  -10.2598    3.7021  -17.0982 N   0  0  0  0  0  0  0  0  0  0  0  0
   -9.0499    3.8063  -16.5859 C   0  0  0  0  0  0  0  0  0  0  0  0
   -6.9139    5.0391  -15.1760 C   0  0  0  0  0  0  0  0  0  0  0  0
   -5.7725    5.3849  -14.4650 C   0  0  0  0  0  0  0  0  0  0  0  0
   -5.9255    5.7369  -13.0349 C   0  0  0  0  0  0  0  0  0  0  0  0
   -5.4616    6.7443  -12.6617 O   0  0  0  0  0  0  0  0  0  0  0  0
   -6.8039    4.6907  -12.2847 N   0  0  0  0  0  0  0  0  0  0  0  0
   -7.3485    4.7192  -10.9975 C   0  0  0  0  0  0  0  0  0  0  0  0
   -7.3005    5.8886  -10.2275 C   0  0  0  0  0  0  0  0  0  0  0  0
   -7.7567    5.9009   -8.9043 C   0  0  0  0  0  0  0  0  0  0  0  0
   -8.2406    4.7253   -8.3534 C   0  0  0  0  0  0  0  0  0  0  0  0
   -8.3499    3.5772   -9.1388 C   0  0  0  0  0  0  0  0  0  0  0  0
   -7.9360    3.5609  -10.4695 C   0  0  0  0  0  0  0  0  0  0  0  0
   -8.8838    2.4548   -8.3070 C   0  0  0  0  0  0  0  0  0  0  0  0
   -8.8881    2.9590   -6.9148 N   0  0  0  0  0  0  0  0  0  0  0  0
  -10.0447    2.5179   -6.1641 C   0  0  0  0  0  0  0  0  0  0  0  0
   -8.5218    4.3940   -6.9012 C   0  0  0  0  0  0  0  0  0  0  0  0
   -7.1876    4.5295   -6.1309 C   0  0  0  0  0  0  0  0  0  0  0  0
   -9.5058    5.3461   -6.2014 C   0  0  0  0  0  0  0  0  0  0  0  0
   -4.5886    5.5111  -15.1990 C   0  0  0  0  0  0  0  0  0  0  0  0
  1  2  1  0
  2  3  2  0
  3  4  1  0
  4  5  1  0
  4  6  1  0
  6  7  2  0
  7  8  1  0
  8  9  1  0
  9 10  2  0
 10 11  1  0
 11 12  2  0
 12 13  1  0
 13 14  2  0
  8 15  2  0
 15 16  1  0
 16 17  1  0
 17 18  2  0
 17 19  1  0
 19 20  1  0
 20 21  2  0
 21 22  1  0
 22 23  2  0
 23 24  1  0
 24 25  2  0
 24 26  1  0
 26 27  1  0
 27 28  1  0
 27 29  1  0
 29 30  1  0
 29 31  1  0
 16 32  2  0
 32  2  1  0
 32  6  1  0
 14  9  1  0
 25 20  1  0
 29 23  1  0
M  END
>  <name>  (250) 
P115932

>  <alias>  (250) 
None

>  <smina_score_min>  (250) 
-8.048

>  <exports>  (250) 
['/opt/xchem-fragalysis-2/maxwin/BulkDock/OUTPUTS/openbind_xx01zvns2b_c2_elabs_1LOUTNY.sdf', '/opt/xchem-fragalysis-2/maxwin/BulkDock/OUTPUTS/openbind_xx01zvns2b_c2_elabs_1LSYIIV.sdf']

>  <tags>  (250) 
syndirella_placed,openbind_xx01zvns2b_c2_elabs,openbind_xx01zvns2b_c2_elabs_scored_6.2plus,syndirella_product,openbind_xx01zvns2b_c2_elabs_scored,openbind_xx01zvns2b_c2_elabs_scored_top80percent,BulkDock Fragalysis export

>  <subsites>  (250) 
1 - Z4590/B/203/1

>  <smiles>  (250) 
Cc1nn(C)c2nc(-c3cccnc3)cc(C(=O)Nc3ccc4c(c3)CN(C)C4(C)C)c12

>  <HIPPO Pose ID>  (250) 
115932

>  <energy_score>  (250) 
-44.250472

>  <inchikey>  (250) 
OUUAZAQNHPMJSZ-UHFFFAOYSA-N

>  <gnina_score_min>  (250) 
6.245

>  <gnina_score>  (250) 
6.162

>  <ref_mols>  (250) 
Z3556a

>  <HIPPO Compound ID>  (250) 
179051

>  <distance_score>  (250) 
1.370747

>  <rmsd(smina/fragmenstein)>  (250) 
1.39

>  <ref_pdb>  (250) 
Z3556a

>  <inspiration_score>  (250) 
None

$$$$
P115933
     RDKit          3D

 32 36  0  0  0  0  0  0  0  0999 V2000
   -9.1369    3.6915   -4.2620 C   0  0  0  0  0  0  0  0  0  0  0  0
  -10.2938    3.3052   -5.1738 C   0  0  0  0  0  0  0  0  0  0  0  0
   -9.9385    2.5202   -6.4443 C   0  0  0  0  0  0  0  0  0  0  0  0
   -8.8291    3.0326   -7.2238 N   0  0  0  0  0  0  0  0  0  0  0  0
   -8.6915    4.4797   -7.3271 C   0  0  0  0  0  0  0  0  0  0  0  0
   -8.1092    4.7128   -8.6740 C   0  0  0  0  0  0  0  0  0  0  0  0
   -7.6050    5.8915   -9.1819 C   0  0  0  0  0  0  0  0  0  0  0  0
   -7.0488    5.8628  -10.4544 C   0  0  0  0  0  0  0  0  0  0  0  0
   -7.0344    4.6771  -11.2030 C   0  0  0  0  0  0  0  0  0  0  0  0
   -6.5191    4.6869  -12.4931 N   0  0  0  0  0  0  0  0  0  0  0  0
   -5.6933    5.7704  -13.2417 C   0  0  0  0  0  0  0  0  0  0  0  0
   -5.2555    6.7852  -12.8622 O   0  0  0  0  0  0  0  0  0  0  0  0
   -5.5737    5.4238  -14.6643 C   0  0  0  0  0  0  0  0  0  0  0  0
   -6.7471    5.0932  -15.3237 C   0  0  0  0  0  0  0  0  0  0  0  0
   -6.7172    4.7644  -16.6740 C   0  0  0  0  0  0  0  0  0  0  0  0
   -7.9208    4.3404  -17.3324 C   0  0  0  0  0  0  0  0  0  0  0  0
   -8.1575    4.5110  -18.6848 C   0  0  0  0  0  0  0  0  0  0  0  0
   -9.4470    4.3623  -19.1635 C   0  0  0  0  0  0  0  0  0  0  0  0
  -10.4341    4.0511  -18.2829 C   0  0  0  0  0  0  0  0  0  0  0  0
  -10.1652    3.6862  -17.0402 N   0  0  0  0  0  0  0  0  0  0  0  0
   -8.9368    3.8142  -16.5824 C   0  0  0  0  0  0  0  0  0  0  0  0
   -5.6296    4.8545  -17.4500 N   0  0  0  0  0  0  0  0  0  0  0  0
   -4.5369    5.2414  -16.7828 C   0  0  0  0  0  0  0  0  0  0  0  0
   -4.4173    5.5282  -15.4299 C   0  0  0  0  0  0  0  0  0  0  0  0
   -3.0533    5.8618  -15.2665 C   0  0  0  0  0  0  0  0  0  0  0  0
   -2.3474    6.2589  -14.0221 C   0  0  0  0  0  0  0  0  0  0  0  0
   -2.3768    5.7919  -16.4251 N   0  0  0  0  0  0  0  0  0  0  0  0
   -3.3061    5.4211  -17.3262 N   0  0  0  0  0  0  0  0  0  0  0  0
   -2.9530    5.2309  -18.7101 C   0  0  0  0  0  0  0  0  0  0  0  0
   -7.6032    3.4985  -10.6960 C   0  0  0  0  0  0  0  0  0  0  0  0
   -8.1128    3.5292   -9.4090 C   0  0  0  0  0  0  0  0  0  0  0  0
   -8.7223    2.4404   -8.5771 C   0  0  0  0  0  0  0  0  0  0  0  0
  1  2  1  0
  2  3  1  0
  3  4  1  0
  4  5  1  0
  5  6  1  0
  6  7  2  0
  7  8  1  0
  8  9  2  0
  9 10  1  0
 10 11  1  0
 11 12  2  0
 11 13  1  0
 13 14  2  0
 14 15  1  0
 15 16  1  0
 16 17  2  0
 17 18  1  0
 18 19  2  0
 19 20  1  0
 20 21  2  0
 15 22  2  0
 22 23  1  0
 23 24  2  0
 24 25  1  0
 25 26  1  0
 25 27  2  0
 27 28  1  0
 28 29  1  0
  9 30  1  0
 30 31  2  0
 31 32  1  0
 32  4  1  0
 31  6  1  0
 24 13  1  0
 21 16  1  0
 28 23  1  0
M  END
>  <name>  (251) 
P115933

>  <alias>  (251) 
None

>  <smina_score_min>  (251) 
-6.989

>  <exports>  (251) 
['/opt/xchem-fragalysis-2/maxwin/BulkDock/OUTPUTS/openbind_xx01zvns2b_c2_elabs_1LOUTNY.sdf', '/opt/xchem-fragalysis-2/maxwin/BulkDock/OUTPUTS/openbind_xx01zvns2b_c2_elabs_1LSYIIV.sdf']

>  <tags>  (251) 
syndirella_placed,openbind_xx01zvns2b_c2_elabs,openbind_xx01zvns2b_c2_elabs_scored_6.2plus,syndirella_product,openbind_xx01zvns2b_c2_elabs_scored,openbind_xx01zvns2b_c2_elabs_scored_top80percent,BulkDock Fragalysis export

>  <subsites>  (251) 
1 - Z4590/B/203/1

>  <smiles>  (251) 
CCCN1Cc2ccc(NC(=O)c3cc(-c4cccnc4)nc4c3c(C)nn4C)cc2C1

>  <HIPPO Pose ID>  (251) 
115933

>  <energy_score>  (251) 
-31.994598

>  <inchikey>  (251) 
LVQKSAMPUFFFQY-UHFFFAOYSA-N

>  <gnina_score_min>  (251) 
6.239

>  <gnina_score>  (251) 
6.217

>  <ref_mols>  (251) 
Z3556a

>  <HIPPO Compound ID>  (251) 
179053

>  <distance_score>  (251) 
1.461147

>  <rmsd(smina/fragmenstein)>  (251) 
0.907

>  <ref_pdb>  (251) 
Z3556a

>  <inspiration_score>  (251) 
None

$$$$
P115961
     RDKit          3D

 32 36  0  0  0  0  0  0  0  0999 V2000
   -9.2896    3.9158  -18.1558 C   0  0  0  0  0  0  0  0  0  0  0  0
   -8.1090    4.3696  -17.3455 C   0  0  0  0  0  0  0  0  0  0  0  0
   -8.2367    4.5685  -15.9757 C   0  0  0  0  0  0  0  0  0  0  0  0
   -7.1291    5.0275  -15.2620 C   0  0  0  0  0  0  0  0  0  0  0  0
   -7.2670    5.4733  -13.8678 C   0  0  0  0  0  0  0  0  0  0  0  0
   -7.0714    6.6015  -13.6414 O   0  0  0  0  0  0  0  0  0  0  0  0
   -7.6264    4.3101  -12.9193 N   0  0  0  0  0  0  0  0  0  0  0  0
   -7.9041    4.3085  -11.5532 C   0  0  0  0  0  0  0  0  0  0  0  0
   -7.9069    5.5165  -10.8263 C   0  0  0  0  0  0  0  0  0  0  0  0
   -8.1969    5.5352   -9.4609 C   0  0  0  0  0  0  0  0  0  0  0  0
   -8.4758    4.3270   -8.8590 C   0  0  0  0  0  0  0  0  0  0  0  0
   -8.4735    3.1209   -9.5574 C   0  0  0  0  0  0  0  0  0  0  0  0
   -8.1846    3.0945  -10.9136 C   0  0  0  0  0  0  0  0  0  0  0  0
   -8.8531    2.0090   -8.6374 C   0  0  0  0  0  0  0  0  0  0  0  0
   -9.1358    2.7130   -7.3979 N   0  0  0  0  0  0  0  0  0  0  0  0
   -9.8786    2.0907   -6.3363 C   0  0  0  0  0  0  0  0  0  0  0  0
   -8.9149    4.0705   -7.4829 C   0  0  0  0  0  0  0  0  0  0  0  0
   -9.1025    4.9347   -6.6462 O   0  0  0  0  0  0  0  0  0  0  0  0
   -5.9087    5.2010  -15.9287 C   0  0  0  0  0  0  0  0  0  0  0  0
   -4.5752    5.5561  -15.6166 C   0  0  0  0  0  0  0  0  0  0  0  0
   -3.9991    5.8920  -14.2897 C   0  0  0  0  0  0  0  0  0  0  0  0
   -3.7835    5.5330  -16.6953 N   0  0  0  0  0  0  0  0  0  0  0  0
   -4.6176    5.2381  -17.7368 N   0  0  0  0  0  0  0  0  0  0  0  0
   -4.1179    5.2451  -19.0732 C   0  0  0  0  0  0  0  0  0  0  0  0
   -4.9845    5.2496  -20.1771 C   0  0  0  0  0  0  0  0  0  0  0  0
   -4.4710    5.2523  -21.4757 C   0  0  0  0  0  0  0  0  0  0  0  0
   -3.0966    5.2316  -21.6728 C   0  0  0  0  0  0  0  0  0  0  0  0
   -2.6126    5.2037  -22.9217 F   0  0  0  0  0  0  0  0  0  0  0  0
   -2.2225    5.2367  -20.5937 C   0  0  0  0  0  0  0  0  0  0  0  0
   -2.7296    5.2562  -19.2915 C   0  0  0  0  0  0  0  0  0  0  0  0
   -5.9087    4.9769  -17.2957 C   0  0  0  0  0  0  0  0  0  0  0  0
   -6.9662    4.5729  -18.0311 N   0  0  0  0  0  0  0  0  0  0  0  0
  1  2  1  0
  2  3  2  0
  3  4  1  0
  4  5  1  0
  5  6  2  0
  5  7  1  0
  7  8  1  0
  8  9  2  0
  9 10  1  0
 10 11  2  0
 11 12  1  0
 12 13  2  0
 12 14  1  0
 14 15  1  0
 15 16  1  0
 15 17  1  0
 17 18  2  0
  4 19  2  0
 19 20  1  0
 20 21  1  0
 20 22  2  0
 22 23  1  0
 23 24  1  0
 24 25  2  0
 25 26  1  0
 26 27  2  0
 27 28  1  0
 27 29  1  0
 29 30  2  0
 23 31  1  0
 31 32  2  0
 32  2  1  0
 13  8  1  0
 31 19  1  0
 17 11  1  0
 30 24  1  0
M  END
>  <name>  (252) 
P115961

>  <alias>  (252) 
None

>  <smina_score_min>  (252) 
-9.916

>  <exports>  (252) 
['/opt/xchem-fragalysis-2/maxwin/BulkDock/OUTPUTS/openbind_xx01zvns2b_c2_elabs_1LOUTNY.sdf', '/opt/xchem-fragalysis-2/maxwin/BulkDock/OUTPUTS/openbind_xx01zvns2b_c2_elabs_1LSYIIV.sdf']

>  <tags>  (252) 
syndirella_placed,openbind_xx01zvns2b_c2_elabs,openbind_xx01zvns2b_c2_elabs_scored_6.2plus,syndirella_product,openbind_xx01zvns2b_c2_elabs_scored,openbind_xx01zvns2b_c2_elabs_scored_top80percent,BulkDock Fragalysis export

>  <subsites>  (252) 
1 - Z4590/B/203/1

>  <smiles>  (252) 
Cc1cc(C(=O)Nc2ccc3c(c2)CN(C)C3=O)c2c(C)nn(-c3ccc(F)cc3)c2n1

>  <HIPPO Pose ID>  (252) 
115961

>  <energy_score>  (252) 
-42.087959

>  <inchikey>  (252) 
PWWNTNKYQVCWHT-UHFFFAOYSA-N

>  <gnina_score_min>  (252) 
6.421

>  <gnina_score>  (252) 
6.321

>  <ref_mols>  (252) 
Z3556a

>  <HIPPO Compound ID>  (252) 
179119

>  <distance_score>  (252) 
0.437016

>  <rmsd(smina/fragmenstein)>  (252) 
0.347

>  <ref_pdb>  (252) 
Z3556a

>  <inspiration_score>  (252) 
None

$$$$
P115979
     RDKit          3D

 32 36  0  0  0  0  0  0  0  0999 V2000
   -9.2137    3.8844  -18.1214 C   0  0  0  0  0  0  0  0  0  0  0  0
   -8.0925    4.3328  -17.2254 C   0  0  0  0  0  0  0  0  0  0  0  0
   -8.3157    4.4861  -15.8552 C   0  0  0  0  0  0  0  0  0  0  0  0
   -7.2815    4.9673  -15.0490 C   0  0  0  0  0  0  0  0  0  0  0  0
   -7.5236    5.4192  -13.6647 C   0  0  0  0  0  0  0  0  0  0  0  0
   -7.3431    6.5561  -13.4584 O   0  0  0  0  0  0  0  0  0  0  0  0
   -7.9518    4.2799  -12.7052 N   0  0  0  0  0  0  0  0  0  0  0  0
   -8.1482    4.2844  -11.3183 C   0  0  0  0  0  0  0  0  0  0  0  0
   -7.8722    5.4614  -10.5899 C   0  0  0  0  0  0  0  0  0  0  0  0
   -7.9742    5.5070   -9.1959 C   0  0  0  0  0  0  0  0  0  0  0  0
   -8.3772    4.3636   -8.5400 C   0  0  0  0  0  0  0  0  0  0  0  0
   -8.7006    3.2136   -9.2611 C   0  0  0  0  0  0  0  0  0  0  0  0
   -8.5771    3.1355  -10.6442 C   0  0  0  0  0  0  0  0  0  0  0  0
   -9.1569    2.2169   -8.2771 C   0  0  0  0  0  0  0  0  0  0  0  0
   -9.5620    1.0968   -8.4924 O   0  0  0  0  0  0  0  0  0  0  0  0
   -9.0913    2.8032   -7.0280 N   0  0  0  0  0  0  0  0  0  0  0  0
   -8.5219    4.1185   -7.0778 C   0  0  0  0  0  0  0  0  0  0  0  0
   -6.0326    5.2153  -15.6435 C   0  0  0  0  0  0  0  0  0  0  0  0
   -4.7356    5.6599  -15.2624 C   0  0  0  0  0  0  0  0  0  0  0  0
   -4.2533    6.0295  -13.9079 C   0  0  0  0  0  0  0  0  0  0  0  0
   -3.8904    5.7104  -16.3047 N   0  0  0  0  0  0  0  0  0  0  0  0
   -4.6581    5.3294  -17.3555 N   0  0  0  0  0  0  0  0  0  0  0  0
   -4.0839    5.2303  -18.6856 C   0  0  0  0  0  0  0  0  0  0  0  0
   -4.2599    6.4990  -19.4851 C   0  0  0  0  0  0  0  0  0  0  0  0
   -5.0950    6.5066  -20.6117 C   0  0  0  0  0  0  0  0  0  0  0  0
   -5.2463    7.6649  -21.3748 C   0  0  0  0  0  0  0  0  0  0  0  0
   -4.5826    8.8304  -21.0030 C   0  0  0  0  0  0  0  0  0  0  0  0
   -4.8115   10.2685  -21.9198 Cl  0  0  0  0  0  0  0  0  0  0  0  0
   -3.7518    8.8425  -19.8849 C   0  0  0  0  0  0  0  0  0  0  0  0
   -3.5863    7.6780  -19.1310 C   0  0  0  0  0  0  0  0  0  0  0  0
   -5.9405    5.0068  -17.0088 C   0  0  0  0  0  0  0  0  0  0  0  0
   -6.9129    4.5859  -17.8361 N   0  0  0  0  0  0  0  0  0  0  0  0
  1  2  1  0
  2  3  2  0
  3  4  1  0
  4  5  1  0
  5  6  2  0
  5  7  1  0
  7  8  1  0
  8  9  2  0
  9 10  1  0
 10 11  2  0
 11 12  1  0
 12 13  2  0
 12 14  1  0
 14 15  2  0
 14 16  1  0
 16 17  1  0
  4 18  2  0
 18 19  1  0
 19 20  1  0
 19 21  2  0
 21 22  1  0
 22 23  1  0
 23 24  1  0
 24 25  2  0
 25 26  1  0
 26 27  2  0
 27 28  1  0
 27 29  1  0
 29 30  2  0
 22 31  1  0
 31 32  2  0
 32  2  1  0
 13  8  1  0
 31 18  1  0
 17 11  1  0
 30 24  1  0
M  END
>  <name>  (253) 
P115979

>  <alias>  (253) 
None

>  <smina_score_min>  (253) 
-9.011

>  <exports>  (253) 
['/opt/xchem-fragalysis-2/maxwin/BulkDock/OUTPUTS/openbind_xx01zvns2b_c2_elabs_1LOUTNY.sdf', '/opt/xchem-fragalysis-2/maxwin/BulkDock/OUTPUTS/openbind_xx01zvns2b_c2_elabs_1LSYIIV.sdf']

>  <tags>  (253) 
syndirella_placed,openbind_xx01zvns2b_c2_elabs,openbind_xx01zvns2b_c2_elabs_scored_6.2plus,syndirella_product,openbind_xx01zvns2b_c2_elabs_scored,openbind_xx01zvns2b_c2_elabs_scored_top80percent,BulkDock Fragalysis export

>  <subsites>  (253) 
1 - Z4590/B/203/1

>  <smiles>  (253) 
Cc1cc(C(=O)Nc2ccc3c(c2)C(=O)NC3)c2c(C)nn(Cc3ccc(Cl)cc3)c2n1

>  <HIPPO Pose ID>  (253) 
115979

>  <energy_score>  (253) 
-35.688027

>  <inchikey>  (253) 
PVSNLHSGLWRRNX-UHFFFAOYSA-N

>  <gnina_score_min>  (253) 
6.458

>  <gnina_score>  (253) 
6.397

>  <ref_mols>  (253) 
Z3556a

>  <HIPPO Compound ID>  (253) 
179152

>  <distance_score>  (253) 
0.410887

>  <rmsd(smina/fragmenstein)>  (253) 
0.836

>  <ref_pdb>  (253) 
Z3556a

>  <inspiration_score>  (253) 
None

$$$$
P115980
     RDKit          3D

 32 36  0  0  0  0  0  0  0  0999 V2000
   -9.2987    3.7886  -18.1682 C   0  0  0  0  0  0  0  0  0  0  0  0
   -8.2473    4.3643  -17.2643 C   0  0  0  0  0  0  0  0  0  0  0  0
   -8.4256    4.3365  -15.8800 C   0  0  0  0  0  0  0  0  0  0  0  0
   -7.4811    4.9637  -15.0644 C   0  0  0  0  0  0  0  0  0  0  0  0
   -7.8124    5.3812  -13.6902 C   0  0  0  0  0  0  0  0  0  0  0  0
   -7.9013    6.5306  -13.5076 O   0  0  0  0  0  0  0  0  0  0  0  0
   -7.9694    4.2008  -12.7152 N   0  0  0  0  0  0  0  0  0  0  0  0
   -8.1687    4.1859  -11.3360 C   0  0  0  0  0  0  0  0  0  0  0  0
   -8.1458    5.3925  -10.6114 C   0  0  0  0  0  0  0  0  0  0  0  0
   -8.3230    5.4073   -9.2268 C   0  0  0  0  0  0  0  0  0  0  0  0
   -8.5445    4.2033   -8.5888 C   0  0  0  0  0  0  0  0  0  0  0  0
   -8.5789    3.0086   -9.3000 C   0  0  0  0  0  0  0  0  0  0  0  0
   -8.3773    2.9770  -10.6738 C   0  0  0  0  0  0  0  0  0  0  0  0
   -8.8418    1.8772   -8.3575 C   0  0  0  0  0  0  0  0  0  0  0  0
   -8.9985    2.4914   -7.0142 N   0  0  0  0  0  0  0  0  0  0  0  0
  -10.2604    2.1562   -6.3835 C   0  0  0  0  0  0  0  0  0  0  0  0
   -8.7750    3.9398   -7.1388 C   0  0  0  0  0  0  0  0  0  0  0  0
   -6.3588    5.5454  -15.6667 C   0  0  0  0  0  0  0  0  0  0  0  0
   -5.2043    6.2732  -15.2756 C   0  0  0  0  0  0  0  0  0  0  0  0
   -4.6937    6.5228  -13.9048 C   0  0  0  0  0  0  0  0  0  0  0  0
   -4.5912    6.8320  -16.3290 N   0  0  0  0  0  0  0  0  0  0  0  0
   -5.3765    6.4735  -17.3794 N   0  0  0  0  0  0  0  0  0  0  0  0
   -5.3502    7.2614  -18.6090 C   0  0  0  0  0  0  0  0  0  0  0  0
   -4.2171    6.8177  -19.4726 C   0  0  0  0  0  0  0  0  0  0  0  0
   -2.9142    7.0535  -19.0087 C   0  0  0  0  0  0  0  0  0  0  0  0
   -1.9733    6.0735  -19.2219 C   0  0  0  0  0  0  0  0  0  0  0  0
   -2.3712    4.9533  -19.9374 C   0  0  0  0  0  0  0  0  0  0  0  0
   -1.7835    3.4563  -19.3811 Cl  0  0  0  0  0  0  0  0  0  0  0  0
   -3.5182    4.9282  -20.7247 C   0  0  0  0  0  0  0  0  0  0  0  0
   -4.4854    5.8713  -20.4655 C   0  0  0  0  0  0  0  0  0  0  0  0
   -6.3470    5.5708  -17.0483 C   0  0  0  0  0  0  0  0  0  0  0  0
   -7.2272    4.9979  -17.8834 N   0  0  0  0  0  0  0  0  0  0  0  0
  1  2  1  0
  2  3  2  0
  3  4  1  0
  4  5  1  0
  5  6  2  0
  5  7  1  0
  7  8  1  0
  8  9  2  0
  9 10  1  0
 10 11  2  0
 11 12  1  0
 12 13  2  0
 12 14  1  0
 14 15  1  0
 15 16  1  0
 15 17  1  0
  4 18  2  0
 18 19  1  0
 19 20  1  0
 19 21  2  0
 21 22  1  0
 22 23  1  0
 23 24  1  0
 24 25  2  0
 25 26  1  0
 26 27  2  0
 27 28  1  0
 27 29  1  0
 29 30  2  0
 22 31  1  0
 31 32  2  0
 32  2  1  0
 13  8  1  0
 31 18  1  0
 17 11  1  0
 30 24  1  0
M  END
>  <name>  (254) 
P115980

>  <alias>  (254) 
None

>  <smina_score_min>  (254) 
-8.901

>  <exports>  (254) 
['/opt/xchem-fragalysis-2/maxwin/BulkDock/OUTPUTS/openbind_xx01zvns2b_c2_elabs_1LOUTNY.sdf', '/opt/xchem-fragalysis-2/maxwin/BulkDock/OUTPUTS/openbind_xx01zvns2b_c2_elabs_1LSYIIV.sdf']

>  <tags>  (254) 
syndirella_placed,openbind_xx01zvns2b_c2_elabs,openbind_xx01zvns2b_c2_elabs_scored_6.2plus,syndirella_product,openbind_xx01zvns2b_c2_elabs_scored,openbind_xx01zvns2b_c2_elabs_scored_top80percent,BulkDock Fragalysis export

>  <subsites>  (254) 
1 - Z4590/B/203/1

>  <smiles>  (254) 
Cc1cc(C(=O)Nc2ccc3c(c2)CN(C)C3)c2c(C)nn(Cc3ccc(Cl)cc3)c2n1

>  <HIPPO Pose ID>  (254) 
115980

>  <energy_score>  (254) 
-5.470264

>  <inchikey>  (254) 
FZUWBKLDJJXVQI-UHFFFAOYSA-N

>  <gnina_score_min>  (254) 
6.5

>  <gnina_score>  (254) 
6.424

>  <ref_mols>  (254) 
Z3556a

>  <HIPPO Compound ID>  (254) 
179154

>  <distance_score>  (254) 
0.858841

>  <rmsd(smina/fragmenstein)>  (254) 
0.474

>  <ref_pdb>  (254) 
Z3556a

>  <inspiration_score>  (254) 
None

$$$$
P115983
     RDKit          3D

 32 36  0  0  0  0  0  0  0  0999 V2000
  -10.5372    2.6602   -5.4602 C   0  0  0  0  0  0  0  0  0  0  0  0
   -9.5568    2.0313   -6.4381 C   0  0  0  0  0  0  0  0  0  0  0  0
   -9.5227    2.8056   -7.6588 N   0  0  0  0  0  0  0  0  0  0  0  0
   -8.7897    4.0791   -7.5425 C   0  0  0  0  0  0  0  0  0  0  0  0
   -8.4158    4.3751   -8.9578 C   0  0  0  0  0  0  0  0  0  0  0  0
   -8.0773    5.5724   -9.5491 C   0  0  0  0  0  0  0  0  0  0  0  0
   -7.8135    5.5648  -10.9195 C   0  0  0  0  0  0  0  0  0  0  0  0
   -7.8742    4.3724  -11.6655 C   0  0  0  0  0  0  0  0  0  0  0  0
   -7.6076    4.3768  -13.0301 N   0  0  0  0  0  0  0  0  0  0  0  0
   -7.2235    5.5343  -13.9710 C   0  0  0  0  0  0  0  0  0  0  0  0
   -6.9944    6.6541  -13.7381 O   0  0  0  0  0  0  0  0  0  0  0  0
   -7.0990    5.0797  -15.3605 C   0  0  0  0  0  0  0  0  0  0  0  0
   -8.2119    4.6156  -16.0608 C   0  0  0  0  0  0  0  0  0  0  0  0
   -8.0865    4.3878  -17.4252 C   0  0  0  0  0  0  0  0  0  0  0  0
   -9.2749    3.9256  -18.2192 C   0  0  0  0  0  0  0  0  0  0  0  0
   -6.9425    4.5706  -18.1166 N   0  0  0  0  0  0  0  0  0  0  0  0
   -5.8806    4.9798  -17.3891 C   0  0  0  0  0  0  0  0  0  0  0  0
   -5.8769    5.2258  -16.0266 C   0  0  0  0  0  0  0  0  0  0  0  0
   -4.5387    5.5634  -15.7162 C   0  0  0  0  0  0  0  0  0  0  0  0
   -3.9565    5.9019  -14.3928 C   0  0  0  0  0  0  0  0  0  0  0  0
   -3.7483    5.5193  -16.7948 N   0  0  0  0  0  0  0  0  0  0  0  0
   -4.5885    5.2304  -17.8332 N   0  0  0  0  0  0  0  0  0  0  0  0
   -4.0939    5.2414  -19.1706 C   0  0  0  0  0  0  0  0  0  0  0  0
   -4.9655    5.2627  -20.2700 C   0  0  0  0  0  0  0  0  0  0  0  0
   -4.4576    5.2798  -21.5704 C   0  0  0  0  0  0  0  0  0  0  0  0
   -3.0841    5.2547  -21.7740 C   0  0  0  0  0  0  0  0  0  0  0  0
   -2.6055    5.2413  -23.0251 F   0  0  0  0  0  0  0  0  0  0  0  0
   -2.2053    5.2409  -20.6990 C   0  0  0  0  0  0  0  0  0  0  0  0
   -2.7066    5.2468  -19.3947 C   0  0  0  0  0  0  0  0  0  0  0  0
   -8.2006    3.1646  -11.0484 C   0  0  0  0  0  0  0  0  0  0  0  0
   -8.4781    3.1896   -9.6954 C   0  0  0  0  0  0  0  0  0  0  0  0
   -8.8959    2.0810   -8.7832 C   0  0  0  0  0  0  0  0  0  0  0  0
  1  2  1  0
  2  3  1  0
  3  4  1  0
  4  5  1  0
  5  6  2  0
  6  7  1  0
  7  8  2  0
  8  9  1  0
  9 10  1  0
 10 11  2  0
 10 12  1  0
 12 13  2  0
 13 14  1  0
 14 15  1  0
 14 16  2  0
 16 17  1  0
 17 18  2  0
 18 19  1  0
 19 20  1  0
 19 21  2  0
 21 22  1  0
 22 23  1  0
 23 24  2  0
 24 25  1  0
 25 26  2  0
 26 27  1  0
 26 28  1  0
 28 29  2  0
  8 30  1  0
 30 31  2  0
 31 32  1  0
 32  3  1  0
 31  5  1  0
 18 12  1  0
 29 23  1  0
 22 17  1  0
M  END
>  <name>  (255) 
P115983

>  <alias>  (255) 
None

>  <smina_score_min>  (255) 
-9.783

>  <exports>  (255) 
['/opt/xchem-fragalysis-2/maxwin/BulkDock/OUTPUTS/openbind_xx01zvns2b_c2_elabs_1LOUTNY.sdf', '/opt/xchem-fragalysis-2/maxwin/BulkDock/OUTPUTS/openbind_xx01zvns2b_c2_elabs_1LSYIIV.sdf']

>  <tags>  (255) 
syndirella_placed,openbind_xx01zvns2b_c2_elabs,openbind_xx01zvns2b_c2_elabs_scored_6.2plus,syndirella_product,openbind_xx01zvns2b_c2_elabs_scored,openbind_xx01zvns2b_c2_elabs_scored_top80percent,BulkDock Fragalysis export

>  <subsites>  (255) 
1 - Z4590/B/203/1

>  <smiles>  (255) 
CCN1Cc2ccc(NC(=O)c3cc(C)nc4c3c(C)nn4-c3ccc(F)cc3)cc2C1

>  <HIPPO Pose ID>  (255) 
115983

>  <energy_score>  (255) 
-60.018485

>  <inchikey>  (255) 
ZURPQNFSISBEMS-UHFFFAOYSA-N

>  <gnina_score_min>  (255) 
6.474

>  <gnina_score>  (255) 
6.391

>  <ref_mols>  (255) 
Z3556a

>  <HIPPO Compound ID>  (255) 
179163

>  <distance_score>  (255) 
0.542632

>  <rmsd(smina/fragmenstein)>  (255) 
0.342

>  <ref_pdb>  (255) 
Z3556a

>  <inspiration_score>  (255) 
None

$$$$
P115984
     RDKit          3D

 32 36  0  0  0  0  0  0  0  0999 V2000
   -9.3178    3.8928  -18.1197 C   0  0  0  0  0  0  0  0  0  0  0  0
   -8.1481    4.3353  -17.2881 C   0  0  0  0  0  0  0  0  0  0  0  0
   -8.2851    4.5098  -15.9147 C   0  0  0  0  0  0  0  0  0  0  0  0
   -7.1859    4.9617  -15.1823 C   0  0  0  0  0  0  0  0  0  0  0  0
   -7.3402    5.4336  -13.7948 C   0  0  0  0  0  0  0  0  0  0  0  0
   -7.1215    6.5665  -13.6079 O   0  0  0  0  0  0  0  0  0  0  0  0
   -7.8048    4.3269  -12.8175 N   0  0  0  0  0  0  0  0  0  0  0  0
   -7.9990    4.3610  -11.4336 C   0  0  0  0  0  0  0  0  0  0  0  0
   -7.7573    5.5592  -10.7286 C   0  0  0  0  0  0  0  0  0  0  0  0
   -7.9398    5.6499   -9.3454 C   0  0  0  0  0  0  0  0  0  0  0  0
   -8.3743    4.5256   -8.6782 C   0  0  0  0  0  0  0  0  0  0  0  0
   -8.6163    3.3410   -9.3757 C   0  0  0  0  0  0  0  0  0  0  0  0
   -8.4345    3.2242  -10.7477 C   0  0  0  0  0  0  0  0  0  0  0  0
   -9.1621    2.3739   -8.4119 C   0  0  0  0  0  0  0  0  0  0  0  0
   -9.5739    1.2680   -8.6848 O   0  0  0  0  0  0  0  0  0  0  0  0
   -9.2041    3.0098   -7.1858 N   0  0  0  0  0  0  0  0  0  0  0  0
   -9.8904    2.4865   -6.0344 C   0  0  0  0  0  0  0  0  0  0  0  0
   -8.6982    4.3574   -7.2336 C   0  0  0  0  0  0  0  0  0  0  0  0
   -5.9621    5.1542  -15.8448 C   0  0  0  0  0  0  0  0  0  0  0  0
   -4.6317    5.5191  -15.5256 C   0  0  0  0  0  0  0  0  0  0  0  0
   -4.0614    5.8401  -14.1924 C   0  0  0  0  0  0  0  0  0  0  0  0
   -3.8359    5.5197  -16.6023 N   0  0  0  0  0  0  0  0  0  0  0  0
   -4.6624    5.2271  -17.6497 N   0  0  0  0  0  0  0  0  0  0  0  0
   -4.1544    5.2352  -18.9839 C   0  0  0  0  0  0  0  0  0  0  0  0
   -2.7648    5.2536  -19.1941 C   0  0  0  0  0  0  0  0  0  0  0  0
   -2.2494    5.2235  -20.4933 C   0  0  0  0  0  0  0  0  0  0  0  0
   -3.1167    5.2020  -21.5780 C   0  0  0  0  0  0  0  0  0  0  0  0
   -2.6257    5.1607  -22.8239 F   0  0  0  0  0  0  0  0  0  0  0  0
   -4.4923    5.2172  -21.3893 C   0  0  0  0  0  0  0  0  0  0  0  0
   -5.0137    5.2249  -20.0936 C   0  0  0  0  0  0  0  0  0  0  0  0
   -5.9531    4.9535  -17.2158 C   0  0  0  0  0  0  0  0  0  0  0  0
   -7.0031    4.5559  -17.9625 N   0  0  0  0  0  0  0  0  0  0  0  0
  1  2  1  0
  2  3  2  0
  3  4  1  0
  4  5  1  0
  5  6  2  0
  5  7  1  0
  7  8  1  0
  8  9  2  0
  9 10  1  0
 10 11  2  0
 11 12  1  0
 12 13  2  0
 12 14  1  0
 14 15  2  0
 14 16  1  0
 16 17  1  0
 16 18  1  0
  4 19  2  0
 19 20  1  0
 20 21  1  0
 20 22  2  0
 22 23  1  0
 23 24  1  0
 24 25  2  0
 25 26  1  0
 26 27  2  0
 27 28  1  0
 27 29  1  0
 29 30  2  0
 23 31  1  0
 31 32  2  0
 32  2  1  0
 13  8  1  0
 31 19  1  0
 18 11  1  0
 30 24  1  0
M  END
>  <name>  (256) 
P115984

>  <alias>  (256) 
None

>  <smina_score_min>  (256) 
-9.668

>  <exports>  (256) 
['/opt/xchem-fragalysis-2/maxwin/BulkDock/OUTPUTS/openbind_xx01zvns2b_c2_elabs_1LOUTNY.sdf', '/opt/xchem-fragalysis-2/maxwin/BulkDock/OUTPUTS/openbind_xx01zvns2b_c2_elabs_1LSYIIV.sdf']

>  <tags>  (256) 
syndirella_placed,openbind_xx01zvns2b_c2_elabs,openbind_xx01zvns2b_c2_elabs_scored_6.2plus,syndirella_product,openbind_xx01zvns2b_c2_elabs_scored,openbind_xx01zvns2b_c2_elabs_scored_top80percent,BulkDock Fragalysis export

>  <subsites>  (256) 
1 - Z4590/B/203/1

>  <smiles>  (256) 
Cc1cc(C(=O)Nc2ccc3c(c2)C(=O)N(C)C3)c2c(C)nn(-c3ccc(F)cc3)c2n1

>  <HIPPO Pose ID>  (256) 
115984

>  <energy_score>  (256) 
-57.04746

>  <inchikey>  (256) 
IXWVQRJVIFNVSA-UHFFFAOYSA-N

>  <gnina_score_min>  (256) 
6.326

>  <gnina_score>  (256) 
6.333

>  <ref_mols>  (256) 
Z3556a

>  <HIPPO Compound ID>  (256) 
179164

>  <distance_score>  (256) 
0.459312

>  <rmsd(smina/fragmenstein)>  (256) 
0.527

>  <ref_pdb>  (256) 
Z3556a

>  <inspiration_score>  (256) 
None

$$$$
P115985
     RDKit          3D

 32 36  0  0  0  0  0  0  0  0999 V2000
   -9.3511    3.8662  -18.0944 C   0  0  0  0  0  0  0  0  0  0  0  0
   -8.2005    4.3069  -17.2364 C   0  0  0  0  0  0  0  0  0  0  0  0
   -8.3562    4.4553  -15.8613 C   0  0  0  0  0  0  0  0  0  0  0  0
   -7.2759    4.9148  -15.1066 C   0  0  0  0  0  0  0  0  0  0  0  0
   -7.4598    5.3874  -13.7209 C   0  0  0  0  0  0  0  0  0  0  0  0
   -7.2488    6.5239  -13.5436 O   0  0  0  0  0  0  0  0  0  0  0  0
   -7.9060    4.2808  -12.7289 N   0  0  0  0  0  0  0  0  0  0  0  0
   -8.0879    4.3231  -11.3315 C   0  0  0  0  0  0  0  0  0  0  0  0
   -8.5492    3.1754  -10.6640 C   0  0  0  0  0  0  0  0  0  0  0  0
   -8.6826    3.2328   -9.2780 C   0  0  0  0  0  0  0  0  0  0  0  0
   -8.3483    4.3647   -8.5365 C   0  0  0  0  0  0  0  0  0  0  0  0
   -7.9129    5.5043   -9.1743 C   0  0  0  0  0  0  0  0  0  0  0  0
   -7.7898    5.4754  -10.5659 C   0  0  0  0  0  0  0  0  0  0  0  0
   -7.3264    6.5961  -11.1306 F   0  0  0  0  0  0  0  0  0  0  0  0
   -8.5126    4.1056   -7.0793 C   0  0  0  0  0  0  0  0  0  0  0  0
   -9.0951    2.7962   -7.0540 N   0  0  0  0  0  0  0  0  0  0  0  0
   -9.1550    2.2271   -8.3106 C   0  0  0  0  0  0  0  0  0  0  0  0
   -9.5620    1.1127   -8.5465 O   0  0  0  0  0  0  0  0  0  0  0  0
   -6.0457    5.1338  -15.7539 C   0  0  0  0  0  0  0  0  0  0  0  0
   -4.7257    5.5223  -15.4170 C   0  0  0  0  0  0  0  0  0  0  0  0
   -4.1812    5.8516  -14.0749 C   0  0  0  0  0  0  0  0  0  0  0  0
   -3.9142    5.5401  -16.4825 N   0  0  0  0  0  0  0  0  0  0  0  0
   -4.7207    5.2340  -17.5424 N   0  0  0  0  0  0  0  0  0  0  0  0
   -4.1920    5.2416  -18.8695 C   0  0  0  0  0  0  0  0  0  0  0  0
   -5.0330    5.2163  -19.9932 C   0  0  0  0  0  0  0  0  0  0  0  0
   -4.4909    5.2033  -21.2807 C   0  0  0  0  0  0  0  0  0  0  0  0
   -3.1125    5.1981  -21.4473 C   0  0  0  0  0  0  0  0  0  0  0  0
   -2.6014    5.1537  -22.6851 F   0  0  0  0  0  0  0  0  0  0  0  0
   -2.2627    5.2338  -20.3488 C   0  0  0  0  0  0  0  0  0  0  0  0
   -2.7994    5.2699  -19.0581 C   0  0  0  0  0  0  0  0  0  0  0  0
   -6.0152    4.9488  -17.1271 C   0  0  0  0  0  0  0  0  0  0  0  0
   -7.0514    4.5534  -17.8925 N   0  0  0  0  0  0  0  0  0  0  0  0
  1  2  1  0
  2  3  2  0
  3  4  1  0
  4  5  1  0
  5  6  2  0
  5  7  1  0
  7  8  1  0
  8  9  2  0
  9 10  1  0
 10 11  2  0
 11 12  1  0
 12 13  2  0
 13 14  1  0
 11 15  1  0
 15 16  1  0
 16 17  1  0
 17 18  2  0
  4 19  2  0
 19 20  1  0
 20 21  1  0
 20 22  2  0
 22 23  1  0
 23 24  1  0
 24 25  2  0
 25 26  1  0
 26 27  2  0
 27 28  1  0
 27 29  1  0
 29 30  2  0
 23 31  1  0
 31 32  2  0
 32  2  1  0
 13  8  1  0
 31 19  1  0
 17 10  1  0
 30 24  1  0
M  END
>  <name>  (257) 
P115985

>  <alias>  (257) 
None

>  <smina_score_min>  (257) 
-9.681

>  <exports>  (257) 
['/opt/xchem-fragalysis-2/maxwin/BulkDock/OUTPUTS/openbind_xx01zvns2b_c2_elabs_1LOUTNY.sdf', '/opt/xchem-fragalysis-2/maxwin/BulkDock/OUTPUTS/openbind_xx01zvns2b_c2_elabs_1LSYIIV.sdf']

>  <tags>  (257) 
syndirella_placed,openbind_xx01zvns2b_c2_elabs,openbind_xx01zvns2b_c2_elabs_scored_6.2plus,syndirella_product,openbind_xx01zvns2b_c2_elabs_scored,openbind_xx01zvns2b_c2_elabs_scored_top80percent,BulkDock Fragalysis export

>  <subsites>  (257) 
1 - Z4590/B/203/1

>  <smiles>  (257) 
Cc1cc(C(=O)Nc2cc3c(cc2F)CNC3=O)c2c(C)nn(-c3ccc(F)cc3)c2n1

>  <HIPPO Pose ID>  (257) 
115985

>  <energy_score>  (257) 
-22.065745

>  <inchikey>  (257) 
AGIMSZHDUMTPFV-UHFFFAOYSA-N

>  <gnina_score_min>  (257) 
6.429

>  <gnina_score>  (257) 
6.467

>  <ref_mols>  (257) 
Z3556a

>  <HIPPO Compound ID>  (257) 
179168

>  <distance_score>  (257) 
0.398633

>  <rmsd(smina/fragmenstein)>  (257) 
0.771

>  <ref_pdb>  (257) 
Z3556a

>  <inspiration_score>  (257) 
None

$$$$
P115990
     RDKit          3D

 32 36  0  0  0  0  0  0  0  0999 V2000
   -9.3513    3.8818  -18.0471 C   0  0  0  0  0  0  0  0  0  0  0  0
   -8.2001    4.3190  -17.1876 C   0  0  0  0  0  0  0  0  0  0  0  0
   -8.3485    4.4575  -15.8100 C   0  0  0  0  0  0  0  0  0  0  0  0
   -7.2627    4.9055  -15.0539 C   0  0  0  0  0  0  0  0  0  0  0  0
   -7.4304    5.3423  -13.6511 C   0  0  0  0  0  0  0  0  0  0  0  0
   -7.1731    6.4627  -13.4350 O   0  0  0  0  0  0  0  0  0  0  0  0
   -7.9263    4.2228  -12.6985 N   0  0  0  0  0  0  0  0  0  0  0  0
   -8.1111    4.2259  -11.3090 C   0  0  0  0  0  0  0  0  0  0  0  0
   -7.8005    5.3945  -10.5758 C   0  0  0  0  0  0  0  0  0  0  0  0
   -7.8854    5.4308   -9.1806 C   0  0  0  0  0  0  0  0  0  0  0  0
   -8.2978    4.2804   -8.5469 C   0  0  0  0  0  0  0  0  0  0  0  0
   -8.6514    3.1406   -9.2497 C   0  0  0  0  0  0  0  0  0  0  0  0
   -8.5600    3.0786  -10.6367 C   0  0  0  0  0  0  0  0  0  0  0  0
   -9.0849    2.1598   -8.2448 C   0  0  0  0  0  0  0  0  0  0  0  0
   -9.5922    1.0808   -8.4569 O   0  0  0  0  0  0  0  0  0  0  0  0
   -8.8960    2.7300   -7.0231 N   0  0  0  0  0  0  0  0  0  0  0  0
   -8.4244    3.9971   -7.1173 C   0  0  0  0  0  0  0  0  0  0  0  0
   -8.1386    4.7690   -6.2216 O   0  0  0  0  0  0  0  0  0  0  0  0
   -6.0354    5.1287  -15.7077 C   0  0  0  0  0  0  0  0  0  0  0  0
   -4.7090    5.5024  -15.3765 C   0  0  0  0  0  0  0  0  0  0  0  0
   -4.1463    5.8032  -14.0352 C   0  0  0  0  0  0  0  0  0  0  0  0
   -3.9070    5.5331  -16.4488 N   0  0  0  0  0  0  0  0  0  0  0  0
   -4.7206    5.2385  -17.5050 N   0  0  0  0  0  0  0  0  0  0  0  0
   -4.1985    5.2441  -18.8351 C   0  0  0  0  0  0  0  0  0  0  0  0
   -2.8066    5.2657  -19.0304 C   0  0  0  0  0  0  0  0  0  0  0  0
   -2.2761    5.2237  -20.3235 C   0  0  0  0  0  0  0  0  0  0  0  0
   -3.1311    5.1885  -21.4179 C   0  0  0  0  0  0  0  0  0  0  0  0
   -2.6264    5.1353  -22.6580 F   0  0  0  0  0  0  0  0  0  0  0  0
   -4.5086    5.2011  -21.2449 C   0  0  0  0  0  0  0  0  0  0  0  0
   -5.0449    5.2207  -19.9549 C   0  0  0  0  0  0  0  0  0  0  0  0
   -6.0135    4.9563  -17.0831 C   0  0  0  0  0  0  0  0  0  0  0  0
   -7.0536    4.5681  -17.8460 N   0  0  0  0  0  0  0  0  0  0  0  0
  1  2  1  0
  2  3  2  0
  3  4  1  0
  4  5  1  0
  5  6  2  0
  5  7  1  0
  7  8  1  0
  8  9  2  0
  9 10  1  0
 10 11  2  0
 11 12  1  0
 12 13  2  0
 12 14  1  0
 14 15  2  0
 14 16  1  0
 16 17  1  0
 17 18  2  0
  4 19  2  0
 19 20  1  0
 20 21  1  0
 20 22  2  0
 22 23  1  0
 23 24  1  0
 24 25  2  0
 25 26  1  0
 26 27  2  0
 27 28  1  0
 27 29  1  0
 29 30  2  0
 23 31  1  0
 31 32  2  0
 32  2  1  0
 13  8  1  0
 31 19  1  0
 17 11  1  0
 30 24  1  0
M  END
>  <name>  (258) 
P115990

>  <alias>  (258) 
None

>  <smina_score_min>  (258) 
-9.855

>  <exports>  (258) 
['/opt/xchem-fragalysis-2/maxwin/BulkDock/OUTPUTS/openbind_xx01zvns2b_c2_elabs_1LOUTNY.sdf', '/opt/xchem-fragalysis-2/maxwin/BulkDock/OUTPUTS/openbind_xx01zvns2b_c2_elabs_1LSYIIV.sdf']

>  <tags>  (258) 
syndirella_placed,openbind_xx01zvns2b_c2_elabs,openbind_xx01zvns2b_c2_elabs_scored_6.2plus,syndirella_product,openbind_xx01zvns2b_c2_elabs_scored,openbind_xx01zvns2b_c2_elabs_scored_top80percent,BulkDock Fragalysis export

>  <subsites>  (258) 
1 - Z4590/B/203/1

>  <smiles>  (258) 
Cc1cc(C(=O)Nc2ccc3c(c2)C(=O)NC3=O)c2c(C)nn(-c3ccc(F)cc3)c2n1

>  <HIPPO Pose ID>  (258) 
115990

>  <energy_score>  (258) 
-56.197121

>  <inchikey>  (258) 
XKRLMJZVROHLNL-UHFFFAOYSA-N

>  <gnina_score_min>  (258) 
6.265

>  <gnina_score>  (258) 
6.309

>  <ref_mols>  (258) 
Z3556a

>  <HIPPO Compound ID>  (258) 
179174

>  <distance_score>  (258) 
0.358485

>  <rmsd(smina/fragmenstein)>  (258) 
0.674

>  <ref_pdb>  (258) 
Z3556a

>  <inspiration_score>  (258) 
None

$$$$
P116005
     RDKit          3D

 32 36  0  0  0  0  0  0  0  0999 V2000
   -9.7257    4.6098  -18.8074 C   0  0  0  0  0  0  0  0  0  0  0  0
   -8.8367    3.5290  -18.2713 C   0  0  0  0  0  0  0  0  0  0  0  0
   -7.7908    4.1564  -17.3910 C   0  0  0  0  0  0  0  0  0  0  0  0
   -8.0999    4.5213  -16.0906 C   0  0  0  0  0  0  0  0  0  0  0  0
   -7.1167    5.1688  -15.3521 C   0  0  0  0  0  0  0  0  0  0  0  0
   -7.4482    5.7746  -14.0655 C   0  0  0  0  0  0  0  0  0  0  0  0
   -7.3942    6.9356  -13.9800 O   0  0  0  0  0  0  0  0  0  0  0  0
   -7.7612    4.7101  -13.0017 N   0  0  0  0  0  0  0  0  0  0  0  0
   -8.1523    4.8467  -11.6790 C   0  0  0  0  0  0  0  0  0  0  0  0
   -8.4262    6.1295  -11.1648 C   0  0  0  0  0  0  0  0  0  0  0  0
   -8.6911    6.3266   -9.8129 C   0  0  0  0  0  0  0  0  0  0  0  0
   -8.6400    5.2241   -8.9952 C   0  0  0  0  0  0  0  0  0  0  0  0
   -8.3527    3.9543   -9.5050 C   0  0  0  0  0  0  0  0  0  0  0  0
   -8.1600    3.7257  -10.8535 C   0  0  0  0  0  0  0  0  0  0  0  0
   -8.0851    3.0515   -8.3458 C   0  0  0  0  0  0  0  0  0  0  0  0
   -7.7891    3.9981   -7.2077 N   0  0  0  0  0  0  0  0  0  0  0  0
   -6.4006    4.5039   -7.2823 C   0  0  0  0  0  0  0  0  0  0  0  0
   -8.6681    5.1527   -7.5000 C   0  0  0  0  0  0  0  0  0  0  0  0
   -5.8455    5.3701  -15.9015 C   0  0  0  0  0  0  0  0  0  0  0  0
   -4.5825    5.8548  -15.4940 C   0  0  0  0  0  0  0  0  0  0  0  0
   -4.1769    6.3522  -14.1549 C   0  0  0  0  0  0  0  0  0  0  0  0
   -3.6802    5.7856  -16.4797 N   0  0  0  0  0  0  0  0  0  0  0  0
   -4.3933    5.3856  -17.5775 N   0  0  0  0  0  0  0  0  0  0  0  0
   -3.7713    5.3980  -18.8513 C   0  0  0  0  0  0  0  0  0  0  0  0
   -2.3707    5.3542  -18.9278 C   0  0  0  0  0  0  0  0  0  0  0  0
   -1.7327    5.3632  -20.1702 C   0  0  0  0  0  0  0  0  0  0  0  0
   -2.4783    5.4284  -21.3454 C   0  0  0  0  0  0  0  0  0  0  0  0
   -3.8657    5.5100  -21.2744 C   0  0  0  0  0  0  0  0  0  0  0  0
   -4.5039    5.5033  -20.0331 C   0  0  0  0  0  0  0  0  0  0  0  0
   -5.8219    5.7228  -20.0326 F   0  0  0  0  0  0  0  0  0  0  0  0
   -5.6840    5.0170  -17.2290 C   0  0  0  0  0  0  0  0  0  0  0  0
   -6.6118    4.4169  -17.9974 N   0  0  0  0  0  0  0  0  0  0  0  0
  1  2  1  0
  2  3  1  0
  3  4  2  0
  4  5  1  0
  5  6  1  0
  6  7  2  0
  6  8  1  0
  8  9  1  0
  9 10  2  0
 10 11  1  0
 11 12  2  0
 12 13  1  0
 13 14  2  0
 13 15  1  0
 15 16  1  0
 16 17  1  0
 16 18  1  0
  5 19  2  0
 19 20  1  0
 20 21  1  0
 20 22  2  0
 22 23  1  0
 23 24  1  0
 24 25  2  0
 25 26  1  0
 26 27  2  0
 27 28  1  0
 28 29  2  0
 29 30  1  0
 23 31  1  0
 31 32  2  0
 32  3  1  0
 14  9  1  0
 31 19  1  0
 18 12  1  0
 29 24  1  0
M  END
>  <name>  (259) 
P116005

>  <alias>  (259) 
None

>  <smina_score_min>  (259) 
-7.812

>  <exports>  (259) 
['/opt/xchem-fragalysis-2/maxwin/BulkDock/OUTPUTS/openbind_xx01zvns2b_c2_elabs_1LOUTNY.sdf', '/opt/xchem-fragalysis-2/maxwin/BulkDock/OUTPUTS/openbind_xx01zvns2b_c2_elabs_1LSYIIV.sdf']

>  <tags>  (259) 
syndirella_placed,openbind_xx01zvns2b_c2_elabs,openbind_xx01zvns2b_c2_elabs_scored_6.2plus,syndirella_product,openbind_xx01zvns2b_c2_elabs_scored,openbind_xx01zvns2b_c2_elabs_scored_top80percent,BulkDock Fragalysis export

>  <subsites>  (259) 
1 - Z4590/B/203/1

>  <smiles>  (259) 
CCc1cc(C(=O)Nc2ccc3c(c2)CN(C)C3)c2c(C)nn(-c3ccccc3F)c2n1

>  <HIPPO Pose ID>  (259) 
116005

>  <energy_score>  (259) 
-39.789544

>  <inchikey>  (259) 
LOEWQUYRCGDURX-UHFFFAOYSA-N

>  <gnina_score_min>  (259) 
6.566

>  <gnina_score>  (259) 
6.146

>  <ref_mols>  (259) 
Z3556a

>  <HIPPO Compound ID>  (259) 
179195

>  <distance_score>  (259) 
0.952887

>  <rmsd(smina/fragmenstein)>  (259) 
0.736

>  <ref_pdb>  (259) 
Z3556a

>  <inspiration_score>  (259) 
None

$$$$
P116006
     RDKit          3D

 32 36  0  0  0  0  0  0  0  0999 V2000
   -9.1152    4.2968  -18.9952 C   0  0  0  0  0  0  0  0  0  0  0  0
   -9.1764    3.8291  -17.5667 C   0  0  0  0  0  0  0  0  0  0  0  0
   -7.9851    4.3108  -16.7823 C   0  0  0  0  0  0  0  0  0  0  0  0
   -8.0911    4.5078  -15.4132 C   0  0  0  0  0  0  0  0  0  0  0  0
   -6.9750    4.9704  -14.7136 C   0  0  0  0  0  0  0  0  0  0  0  0
   -7.1000    5.3822  -13.3007 C   0  0  0  0  0  0  0  0  0  0  0  0
   -6.7181    6.4535  -13.0304 O   0  0  0  0  0  0  0  0  0  0  0  0
   -7.7801    4.3053  -12.4170 N   0  0  0  0  0  0  0  0  0  0  0  0
   -8.0360    4.2881  -11.0436 C   0  0  0  0  0  0  0  0  0  0  0  0
   -7.7712    5.4424  -10.2793 C   0  0  0  0  0  0  0  0  0  0  0  0
   -7.9406    5.4559   -8.8927 C   0  0  0  0  0  0  0  0  0  0  0  0
   -8.3934    4.3032   -8.2865 C   0  0  0  0  0  0  0  0  0  0  0  0
   -8.7087    3.1787   -9.0499 C   0  0  0  0  0  0  0  0  0  0  0  0
   -8.5312    3.1348  -10.4259 C   0  0  0  0  0  0  0  0  0  0  0  0
   -9.2065    2.1581   -8.1133 C   0  0  0  0  0  0  0  0  0  0  0  0
   -9.6117    1.0487   -8.3789 O   0  0  0  0  0  0  0  0  0  0  0  0
   -9.1758    2.7067   -6.8456 N   0  0  0  0  0  0  0  0  0  0  0  0
   -8.5954    4.0188   -6.8385 C   0  0  0  0  0  0  0  0  0  0  0  0
   -5.7752    5.1869  -15.4180 C   0  0  0  0  0  0  0  0  0  0  0  0
   -4.4409    5.5745  -15.1530 C   0  0  0  0  0  0  0  0  0  0  0  0
   -3.8157    5.9083  -13.8477 C   0  0  0  0  0  0  0  0  0  0  0  0
   -3.6904    5.5954  -16.2603 N   0  0  0  0  0  0  0  0  0  0  0  0
   -4.5329    5.2648  -17.2769 N   0  0  0  0  0  0  0  0  0  0  0  0
   -4.0892    5.2732  -18.6325 C   0  0  0  0  0  0  0  0  0  0  0  0
   -5.0051    5.2713  -19.6993 C   0  0  0  0  0  0  0  0  0  0  0  0
   -4.5589    5.2868  -21.0263 C   0  0  0  0  0  0  0  0  0  0  0  0
   -3.1958    5.2907  -21.3064 C   0  0  0  0  0  0  0  0  0  0  0  0
   -2.2799    5.2913  -20.2569 C   0  0  0  0  0  0  0  0  0  0  0  0
   -2.7229    5.2940  -18.9326 C   0  0  0  0  0  0  0  0  0  0  0  0
   -1.7812    5.2789  -17.9791 F   0  0  0  0  0  0  0  0  0  0  0  0
   -5.8013    4.9716  -16.7868 C   0  0  0  0  0  0  0  0  0  0  0  0
   -6.8607    4.5346  -17.4883 N   0  0  0  0  0  0  0  0  0  0  0  0
  1  2  1  0
  2  3  1  0
  3  4  2  0
  4  5  1  0
  5  6  1  0
  6  7  2  0
  6  8  1  0
  8  9  1  0
  9 10  2  0
 10 11  1  0
 11 12  2  0
 12 13  1  0
 13 14  2  0
 13 15  1  0
 15 16  2  0
 15 17  1  0
 17 18  1  0
  5 19  2  0
 19 20  1  0
 20 21  1  0
 20 22  2  0
 22 23  1  0
 23 24  1  0
 24 25  2  0
 25 26  1  0
 26 27  2  0
 27 28  1  0
 28 29  2  0
 29 30  1  0
 23 31  1  0
 31 32  2  0
 32  3  1  0
 14  9  1  0
 31 19  1  0
 18 12  1  0
 29 24  1  0
M  END
>  <name>  (260) 
P116006

>  <alias>  (260) 
None

>  <smina_score_min>  (260) 
-8.516

>  <exports>  (260) 
['/opt/xchem-fragalysis-2/maxwin/BulkDock/OUTPUTS/openbind_xx01zvns2b_c2_elabs_1LOUTNY.sdf', '/opt/xchem-fragalysis-2/maxwin/BulkDock/OUTPUTS/openbind_xx01zvns2b_c2_elabs_1LSYIIV.sdf']

>  <tags>  (260) 
syndirella_placed,openbind_xx01zvns2b_c2_elabs,openbind_xx01zvns2b_c2_elabs_scored_6.2plus,syndirella_product,openbind_xx01zvns2b_c2_elabs_scored,openbind_xx01zvns2b_c2_elabs_scored_top80percent,BulkDock Fragalysis export

>  <subsites>  (260) 
1 - Z4590/B/203/1

>  <smiles>  (260) 
CCc1cc(C(=O)Nc2ccc3c(c2)C(=O)NC3)c2c(C)nn(-c3ccccc3F)c2n1

>  <HIPPO Pose ID>  (260) 
116006

>  <energy_score>  (260) 
-61.992158

>  <inchikey>  (260) 
DLOTZFQYMJUUGO-UHFFFAOYSA-N

>  <gnina_score_min>  (260) 
6.333

>  <gnina_score>  (260) 
6.331

>  <ref_mols>  (260) 
Z3556a

>  <HIPPO Compound ID>  (260) 
179196

>  <distance_score>  (260) 
0.534752

>  <rmsd(smina/fragmenstein)>  (260) 
0.531

>  <ref_pdb>  (260) 
Z3556a

>  <inspiration_score>  (260) 
None

$$$$
P116007
     RDKit          3D

 32 36  0  0  0  0  0  0  0  0999 V2000
   -4.2453   10.2104  -21.9414 C   0  0  0  0  0  0  0  0  0  0  0  0
   -4.1815    8.9306  -21.1633 C   0  0  0  0  0  0  0  0  0  0  0  0
   -5.0521    7.8762  -21.4573 C   0  0  0  0  0  0  0  0  0  0  0  0
   -5.0140    6.6953  -20.7125 C   0  0  0  0  0  0  0  0  0  0  0  0
   -4.0958    6.5424  -19.6657 C   0  0  0  0  0  0  0  0  0  0  0  0
   -4.0271    5.2470  -18.8961 C   0  0  0  0  0  0  0  0  0  0  0  0
   -4.5954    5.3625  -17.5654 N   0  0  0  0  0  0  0  0  0  0  0  0
   -3.8256    5.7606  -16.5170 N   0  0  0  0  0  0  0  0  0  0  0  0
   -4.6863    5.7652  -15.4924 C   0  0  0  0  0  0  0  0  0  0  0  0
   -5.9678    5.3029  -15.8538 C   0  0  0  0  0  0  0  0  0  0  0  0
   -7.2054    5.0772  -15.2480 C   0  0  0  0  0  0  0  0  0  0  0  0
   -7.4221    5.5303  -13.8677 C   0  0  0  0  0  0  0  0  0  0  0  0
   -7.3504    6.6764  -13.6589 O   0  0  0  0  0  0  0  0  0  0  0  0
   -7.7572    4.3594  -12.9195 N   0  0  0  0  0  0  0  0  0  0  0  0
   -7.9740    4.3430  -11.5427 C   0  0  0  0  0  0  0  0  0  0  0  0
   -7.9403    5.5421  -10.8025 C   0  0  0  0  0  0  0  0  0  0  0  0
   -8.1948    5.5487   -9.4300 C   0  0  0  0  0  0  0  0  0  0  0  0
   -8.4721    4.3369   -8.8345 C   0  0  0  0  0  0  0  0  0  0  0  0
   -8.4947    3.1378   -9.5445 C   0  0  0  0  0  0  0  0  0  0  0  0
   -8.2427    3.1237  -10.9079 C   0  0  0  0  0  0  0  0  0  0  0  0
   -8.8640    2.0202   -8.6275 C   0  0  0  0  0  0  0  0  0  0  0  0
   -9.1313    2.7163   -7.3803 N   0  0  0  0  0  0  0  0  0  0  0  0
   -9.8795    2.0946   -6.3222 C   0  0  0  0  0  0  0  0  0  0  0  0
   -8.8974    4.0724   -7.4556 C   0  0  0  0  0  0  0  0  0  0  0  0
   -9.0702    4.9313   -6.6102 O   0  0  0  0  0  0  0  0  0  0  0  0
   -8.2497    4.5696  -16.0217 C   0  0  0  0  0  0  0  0  0  0  0  0
   -8.0340    4.3586  -17.3832 C   0  0  0  0  0  0  0  0  0  0  0  0
   -9.1719    3.8903  -18.2467 C   0  0  0  0  0  0  0  0  0  0  0  0
   -6.8528    4.5731  -18.0100 N   0  0  0  0  0  0  0  0  0  0  0  0
   -5.8769    5.0372  -17.2078 C   0  0  0  0  0  0  0  0  0  0  0  0
   -3.2375    7.6069  -19.3602 C   0  0  0  0  0  0  0  0  0  0  0  0
   -3.2860    8.7928  -20.0970 C   0  0  0  0  0  0  0  0  0  0  0  0
  1  2  1  0
  2  3  2  0
  3  4  1  0
  4  5  2  0
  5  6  1  0
  6  7  1  0
  7  8  1  0
  8  9  2  0
  9 10  1  0
 10 11  2  0
 11 12  1  0
 12 13  2  0
 12 14  1  0
 14 15  1  0
 15 16  2  0
 16 17  1  0
 17 18  2  0
 18 19  1  0
 19 20  2  0
 19 21  1  0
 21 22  1  0
 22 23  1  0
 22 24  1  0
 24 25  2  0
 11 26  1  0
 26 27  2  0
 27 28  1  0
 27 29  1  0
 29 30  2  0
  5 31  1  0
 31 32  2  0
 32  2  1  0
 30  7  1  0
 30 10  1  0
 20 15  1  0
 24 18  1  0
M  END
>  <name>  (261) 
P116007

>  <alias>  (261) 
None

>  <smina_score_min>  (261) 
-9.246

>  <exports>  (261) 
['/opt/xchem-fragalysis-2/maxwin/BulkDock/OUTPUTS/openbind_xx01zvns2b_c2_elabs_1LOUTNY.sdf', '/opt/xchem-fragalysis-2/maxwin/BulkDock/OUTPUTS/openbind_xx01zvns2b_c2_elabs_1LSYIIV.sdf']

>  <tags>  (261) 
syndirella_placed,openbind_xx01zvns2b_c2_elabs,openbind_xx01zvns2b_c2_elabs_scored_6.2plus,syndirella_product,openbind_xx01zvns2b_c2_elabs_scored,openbind_xx01zvns2b_c2_elabs_scored_top80percent,BulkDock Fragalysis export

>  <subsites>  (261) 
1 - Z4590/B/203/1

>  <smiles>  (261) 
Cc1ccc(Cn2ncc3c(C(=O)Nc4ccc5c(c4)CN(C)C5=O)cc(C)nc32)cc1

>  <HIPPO Pose ID>  (261) 
116007

>  <energy_score>  (261) 
-10.559771

>  <inchikey>  (261) 
NDUIVCCGPRNIDJ-UHFFFAOYSA-N

>  <gnina_score_min>  (261) 
6.333

>  <gnina_score>  (261) 
6.193

>  <ref_mols>  (261) 
Z3556a

>  <HIPPO Compound ID>  (261) 
179198

>  <distance_score>  (261) 
0.455411

>  <rmsd(smina/fragmenstein)>  (261) 
0.832

>  <ref_pdb>  (261) 
Z3556a

>  <inspiration_score>  (261) 
None

$$$$
P116008
     RDKit          3D

 32 36  0  0  0  0  0  0  0  0999 V2000
   -4.3945   10.1476  -21.8454 C   0  0  0  0  0  0  0  0  0  0  0  0
   -4.3468    8.9042  -21.0091 C   0  0  0  0  0  0  0  0  0  0  0  0
   -3.4610    8.8072  -19.9303 C   0  0  0  0  0  0  0  0  0  0  0  0
   -3.3853    7.6326  -19.1773 C   0  0  0  0  0  0  0  0  0  0  0  0
   -4.1921    6.5314  -19.4918 C   0  0  0  0  0  0  0  0  0  0  0  0
   -4.0922    5.2468  -18.7071 C   0  0  0  0  0  0  0  0  0  0  0  0
   -4.6789    5.3558  -17.3836 N   0  0  0  0  0  0  0  0  0  0  0  0
   -3.9245    5.7553  -16.3257 N   0  0  0  0  0  0  0  0  0  0  0  0
   -4.7905    5.7169  -15.3054 C   0  0  0  0  0  0  0  0  0  0  0  0
   -6.0624    5.2328  -15.6797 C   0  0  0  0  0  0  0  0  0  0  0  0
   -7.3001    4.9694  -15.0759 C   0  0  0  0  0  0  0  0  0  0  0  0
   -7.5236    5.4376  -13.6947 C   0  0  0  0  0  0  0  0  0  0  0  0
   -7.3335    6.5766  -13.5106 O   0  0  0  0  0  0  0  0  0  0  0  0
   -7.9469    4.3166  -12.7092 N   0  0  0  0  0  0  0  0  0  0  0  0
   -8.1267    4.3465  -11.3112 C   0  0  0  0  0  0  0  0  0  0  0  0
   -8.5705    3.1885  -10.6500 C   0  0  0  0  0  0  0  0  0  0  0  0
   -8.6972    3.2348   -9.2629 C   0  0  0  0  0  0  0  0  0  0  0  0
   -8.3693    4.3641   -8.5147 C   0  0  0  0  0  0  0  0  0  0  0  0
   -7.9497    5.5130   -9.1461 C   0  0  0  0  0  0  0  0  0  0  0  0
   -7.8367    5.4964  -10.5386 C   0  0  0  0  0  0  0  0  0  0  0  0
   -7.3904    6.6270  -11.0972 F   0  0  0  0  0  0  0  0  0  0  0  0
   -8.5233    4.0928   -7.0587 C   0  0  0  0  0  0  0  0  0  0  0  0
   -9.0967    2.7791   -7.0404 N   0  0  0  0  0  0  0  0  0  0  0  0
   -9.1586    2.2191   -8.3010 C   0  0  0  0  0  0  0  0  0  0  0  0
   -9.5615    1.1048   -8.5444 O   0  0  0  0  0  0  0  0  0  0  0  0
   -8.3285    4.4700  -15.8764 C   0  0  0  0  0  0  0  0  0  0  0  0
   -8.1038    4.3115  -17.2475 C   0  0  0  0  0  0  0  0  0  0  0  0
   -9.2257    3.8576  -18.1399 C   0  0  0  0  0  0  0  0  0  0  0  0
   -6.9250    4.5664  -17.8641 N   0  0  0  0  0  0  0  0  0  0  0  0
   -5.9597    5.0119  -17.0412 C   0  0  0  0  0  0  0  0  0  0  0  0
   -5.0809    6.6332  -20.5695 C   0  0  0  0  0  0  0  0  0  0  0  0
   -5.1447    7.8019  -21.3313 C   0  0  0  0  0  0  0  0  0  0  0  0
  1  2  1  0
  2  3  2  0
  3  4  1  0
  4  5  2  0
  5  6  1  0
  6  7  1  0
  7  8  1  0
  8  9  2  0
  9 10  1  0
 10 11  2  0
 11 12  1  0
 12 13  2  0
 12 14  1  0
 14 15  1  0
 15 16  2  0
 16 17  1  0
 17 18  2  0
 18 19  1  0
 19 20  2  0
 20 21  1  0
 18 22  1  0
 22 23  1  0
 23 24  1  0
 24 25  2  0
 11 26  1  0
 26 27  2  0
 27 28  1  0
 27 29  1  0
 29 30  2  0
  5 31  1  0
 31 32  2  0
 32  2  1  0
 30  7  1  0
 30 10  1  0
 20 15  1  0
 24 17  1  0
M  END
>  <name>  (262) 
P116008

>  <alias>  (262) 
None

>  <smina_score_min>  (262) 
-9.035

>  <exports>  (262) 
['/opt/xchem-fragalysis-2/maxwin/BulkDock/OUTPUTS/openbind_xx01zvns2b_c2_elabs_1LOUTNY.sdf', '/opt/xchem-fragalysis-2/maxwin/BulkDock/OUTPUTS/openbind_xx01zvns2b_c2_elabs_1LSYIIV.sdf']

>  <tags>  (262) 
syndirella_placed,openbind_xx01zvns2b_c2_elabs,openbind_xx01zvns2b_c2_elabs_scored_6.2plus,syndirella_product,openbind_xx01zvns2b_c2_elabs_scored,openbind_xx01zvns2b_c2_elabs_scored_top80percent,BulkDock Fragalysis export

>  <subsites>  (262) 
1 - Z4590/B/203/1

>  <smiles>  (262) 
Cc1ccc(Cn2ncc3c(C(=O)Nc4cc5c(cc4F)CNC5=O)cc(C)nc32)cc1

>  <HIPPO Pose ID>  (262) 
116008

>  <energy_score>  (262) 
-35.30741

>  <inchikey>  (262) 
RXCBQNNQOXBLII-UHFFFAOYSA-N

>  <gnina_score_min>  (262) 
6.392

>  <gnina_score>  (262) 
6.335

>  <ref_mols>  (262) 
Z3556a

>  <HIPPO Compound ID>  (262) 
179199

>  <distance_score>  (262) 
0.426664

>  <rmsd(smina/fragmenstein)>  (262) 
0.931

>  <ref_pdb>  (262) 
Z3556a

>  <inspiration_score>  (262) 
None

$$$$
P116009
     RDKit          3D

 32 36  0  0  0  0  0  0  0  0999 V2000
   -9.8819    3.5259  -17.9961 C   0  0  0  0  0  0  0  0  0  0  0  0
   -8.6918    4.3132  -18.4471 C   0  0  0  0  0  0  0  0  0  0  0  0
   -7.6413    4.5666  -17.4015 C   0  0  0  0  0  0  0  0  0  0  0  0
   -7.9255    4.7572  -16.0492 C   0  0  0  0  0  0  0  0  0  0  0  0
   -6.8924    5.1206  -15.1840 C   0  0  0  0  0  0  0  0  0  0  0  0
   -7.1954    5.5401  -13.8043 C   0  0  0  0  0  0  0  0  0  0  0  0
   -7.0595    6.6712  -13.5469 O   0  0  0  0  0  0  0  0  0  0  0  0
   -7.6659    4.3606  -12.9217 N   0  0  0  0  0  0  0  0  0  0  0  0
   -7.9670    4.3112  -11.5565 C   0  0  0  0  0  0  0  0  0  0  0  0
   -7.9927    5.4931  -10.7885 C   0  0  0  0  0  0  0  0  0  0  0  0
   -8.2401    5.4563   -9.4126 C   0  0  0  0  0  0  0  0  0  0  0  0
   -8.4674    4.2215   -8.8416 C   0  0  0  0  0  0  0  0  0  0  0  0
   -8.4617    3.0417   -9.5811 C   0  0  0  0  0  0  0  0  0  0  0  0
   -8.2149    3.0714  -10.9484 C   0  0  0  0  0  0  0  0  0  0  0  0
   -8.6955    1.8825   -8.6686 C   0  0  0  0  0  0  0  0  0  0  0  0
   -8.9169    2.5193   -7.3858 N   0  0  0  0  0  0  0  0  0  0  0  0
   -8.6991    3.8789   -7.4335 C   0  0  0  0  0  0  0  0  0  0  0  0
   -8.6627    4.6569   -6.4994 O   0  0  0  0  0  0  0  0  0  0  0  0
   -5.6012    5.2750  -15.7032 C   0  0  0  0  0  0  0  0  0  0  0  0
   -4.3093    5.6026  -15.2420 C   0  0  0  0  0  0  0  0  0  0  0  0
   -3.8759    5.8988  -13.8529 C   0  0  0  0  0  0  0  0  0  0  0  0
   -3.4124    5.6175  -16.2332 N   0  0  0  0  0  0  0  0  0  0  0  0
   -4.1155    5.3512  -17.3688 N   0  0  0  0  0  0  0  0  0  0  0  0
   -3.4930    5.3986  -18.6528 C   0  0  0  0  0  0  0  0  0  0  0  0
   -4.2489    5.3592  -19.8392 C   0  0  0  0  0  0  0  0  0  0  0  0
   -3.6249    5.4119  -21.0913 C   0  0  0  0  0  0  0  0  0  0  0  0
   -2.2404    5.5016  -21.1781 C   0  0  0  0  0  0  0  0  0  0  0  0
   -1.4826    5.5523  -20.0115 C   0  0  0  0  0  0  0  0  0  0  0  0
   -2.1021    5.5075  -18.7620 C   0  0  0  0  0  0  0  0  0  0  0  0
   -1.2991    5.5574  -17.6899 F   0  0  0  0  0  0  0  0  0  0  0  0
   -5.4471    5.0898  -17.0674 C   0  0  0  0  0  0  0  0  0  0  0  0
   -6.4179    4.7390  -17.9273 N   0  0  0  0  0  0  0  0  0  0  0  0
  1  2  1  0
  2  3  1  0
  3  4  2  0
  4  5  1  0
  5  6  1  0
  6  7  2  0
  6  8  1  0
  8  9  1  0
  9 10  2  0
 10 11  1  0
 11 12  2  0
 12 13  1  0
 13 14  2  0
 13 15  1  0
 15 16  1  0
 16 17  1  0
 17 18  2  0
  5 19  2  0
 19 20  1  0
 20 21  1  0
 20 22  2  0
 22 23  1  0
 23 24  1  0
 24 25  2  0
 25 26  1  0
 26 27  2  0
 27 28  1  0
 28 29  2  0
 29 30  1  0
 23 31  1  0
 31 32  2  0
 32  3  1  0
 14  9  1  0
 31 19  1  0
 17 12  1  0
 29 24  1  0
M  END
>  <name>  (263) 
P116009

>  <alias>  (263) 
None

>  <smina_score_min>  (263) 
-8.999

>  <exports>  (263) 
['/opt/xchem-fragalysis-2/maxwin/BulkDock/OUTPUTS/openbind_xx01zvns2b_c2_elabs_1LOUTNY.sdf', '/opt/xchem-fragalysis-2/maxwin/BulkDock/OUTPUTS/openbind_xx01zvns2b_c2_elabs_1LSYIIV.sdf']

>  <tags>  (263) 
syndirella_placed,openbind_xx01zvns2b_c2_elabs,openbind_xx01zvns2b_c2_elabs_scored_6.2plus,syndirella_product,openbind_xx01zvns2b_c2_elabs_scored,openbind_xx01zvns2b_c2_elabs_scored_top80percent,BulkDock Fragalysis export

>  <subsites>  (263) 
1 - Z4590/B/203/1

>  <smiles>  (263) 
CCc1cc(C(=O)Nc2ccc3c(c2)CNC3=O)c2c(C)nn(-c3ccccc3F)c2n1

>  <HIPPO Pose ID>  (263) 
116009

>  <energy_score>  (263) 
-27.456635

>  <inchikey>  (263) 
KQVDHEOSFNVJLQ-UHFFFAOYSA-N

>  <gnina_score_min>  (263) 
6.258

>  <gnina_score>  (263) 
6.482

>  <ref_mols>  (263) 
Z3556a

>  <HIPPO Compound ID>  (263) 
179200

>  <distance_score>  (263) 
0.569284

>  <rmsd(smina/fragmenstein)>  (263) 
1.051

>  <ref_pdb>  (263) 
Z3556a

>  <inspiration_score>  (263) 
None

$$$$
P116010
     RDKit          3D

 32 36  0  0  0  0  0  0  0  0999 V2000
   -3.3277   10.1255  -22.9641 C   0  0  0  0  0  0  0  0  0  0  0  0
   -4.3114   10.1786  -21.8053 C   0  0  0  0  0  0  0  0  0  0  0  0
   -4.2802    8.9154  -20.9852 C   0  0  0  0  0  0  0  0  0  0  0  0
   -3.4144    8.7983  -19.8914 C   0  0  0  0  0  0  0  0  0  0  0  0
   -3.3634    7.6151  -19.1503 C   0  0  0  0  0  0  0  0  0  0  0  0
   -4.1796    6.5268  -19.4865 C   0  0  0  0  0  0  0  0  0  0  0  0
   -4.1044    5.2325  -18.7146 C   0  0  0  0  0  0  0  0  0  0  0  0
   -4.6725    5.3463  -17.3828 N   0  0  0  0  0  0  0  0  0  0  0  0
   -3.9029    5.7445  -16.3343 N   0  0  0  0  0  0  0  0  0  0  0  0
   -4.7523    5.6990  -15.3011 C   0  0  0  0  0  0  0  0  0  0  0  0
   -6.0333    5.2272  -15.6594 C   0  0  0  0  0  0  0  0  0  0  0  0
   -7.2625    4.9645  -15.0383 C   0  0  0  0  0  0  0  0  0  0  0  0
   -7.4573    5.4060  -13.6423 C   0  0  0  0  0  0  0  0  0  0  0  0
   -7.2175    6.5302  -13.4259 O   0  0  0  0  0  0  0  0  0  0  0  0
   -7.9434    4.2815  -12.6921 N   0  0  0  0  0  0  0  0  0  0  0  0
   -8.1376    4.2836  -11.3049 C   0  0  0  0  0  0  0  0  0  0  0  0
   -7.8436    5.4531  -10.5717 C   0  0  0  0  0  0  0  0  0  0  0  0
   -7.9485    5.4959   -9.1778 C   0  0  0  0  0  0  0  0  0  0  0  0
   -8.3677    4.3560   -8.5263 C   0  0  0  0  0  0  0  0  0  0  0  0
   -8.7042    3.2126   -9.2517 C   0  0  0  0  0  0  0  0  0  0  0  0
   -8.5843    3.1388  -10.6354 C   0  0  0  0  0  0  0  0  0  0  0  0
   -9.1648    2.2148   -8.2711 C   0  0  0  0  0  0  0  0  0  0  0  0
   -9.5734    1.0970   -8.4914 O   0  0  0  0  0  0  0  0  0  0  0  0
   -9.0953    2.7961   -7.0199 N   0  0  0  0  0  0  0  0  0  0  0  0
   -8.5159    4.1074   -7.0650 C   0  0  0  0  0  0  0  0  0  0  0  0
   -8.3055    4.4745  -15.8273 C   0  0  0  0  0  0  0  0  0  0  0  0
   -8.1017    4.3228  -17.2024 C   0  0  0  0  0  0  0  0  0  0  0  0
   -9.2309    3.8694  -18.0847 C   0  0  0  0  0  0  0  0  0  0  0  0
   -6.9328    4.5790  -17.8333 N   0  0  0  0  0  0  0  0  0  0  0  0
   -5.9519    5.0134  -17.0234 C   0  0  0  0  0  0  0  0  0  0  0  0
   -5.0527    6.6499  -20.5747 C   0  0  0  0  0  0  0  0  0  0  0  0
   -5.0924    7.8274  -21.3243 C   0  0  0  0  0  0  0  0  0  0  0  0
  1  2  1  0
  2  3  1  0
  3  4  2  0
  4  5  1  0
  5  6  2  0
  6  7  1  0
  7  8  1  0
  8  9  1  0
  9 10  2  0
 10 11  1  0
 11 12  2  0
 12 13  1  0
 13 14  2  0
 13 15  1  0
 15 16  1  0
 16 17  2  0
 17 18  1  0
 18 19  2  0
 19 20  1  0
 20 21  2  0
 20 22  1  0
 22 23  2  0
 22 24  1  0
 24 25  1  0
 12 26  1  0
 26 27  2  0
 27 28  1  0
 27 29  1  0
 29 30  2  0
  6 31  1  0
 31 32  2  0
 32  3  1  0
 30  8  1  0
 30 11  1  0
 21 16  1  0
 25 19  1  0
M  END
>  <name>  (264) 
P116010

>  <alias>  (264) 
None

>  <smina_score_min>  (264) 
-8.451

>  <exports>  (264) 
['/opt/xchem-fragalysis-2/maxwin/BulkDock/OUTPUTS/openbind_xx01zvns2b_c2_elabs_1LOUTNY.sdf', '/opt/xchem-fragalysis-2/maxwin/BulkDock/OUTPUTS/openbind_xx01zvns2b_c2_elabs_1LSYIIV.sdf']

>  <tags>  (264) 
syndirella_placed,openbind_xx01zvns2b_c2_elabs,openbind_xx01zvns2b_c2_elabs_scored_6.2plus,syndirella_product,openbind_xx01zvns2b_c2_elabs_scored,openbind_xx01zvns2b_c2_elabs_scored_top80percent,BulkDock Fragalysis export

>  <subsites>  (264) 
1 - Z4590/B/203/1

>  <smiles>  (264) 
CCc1ccc(Cn2ncc3c(C(=O)Nc4ccc5c(c4)C(=O)NC5)cc(C)nc32)cc1

>  <HIPPO Pose ID>  (264) 
116010

>  <energy_score>  (264) 
-38.539217

>  <inchikey>  (264) 
IMROLELCKPSWQM-UHFFFAOYSA-N

>  <gnina_score_min>  (264) 
6.302

>  <gnina_score>  (264) 
6.163

>  <ref_mols>  (264) 
Z3556a

>  <HIPPO Compound ID>  (264) 
179202

>  <distance_score>  (264) 
0.404199

>  <rmsd(smina/fragmenstein)>  (264) 
0.913

>  <ref_pdb>  (264) 
Z3556a

>  <inspiration_score>  (264) 
None

$$$$
P116011
     RDKit          3D

 32 36  0  0  0  0  0  0  0  0999 V2000
   -3.5449    9.9340  -23.3091 C   0  0  0  0  0  0  0  0  0  0  0  0
   -4.4318   10.0474  -22.0788 C   0  0  0  0  0  0  0  0  0  0  0  0
   -4.3408    8.8219  -21.2074 C   0  0  0  0  0  0  0  0  0  0  0  0
   -3.4115    8.7586  -20.1618 C   0  0  0  0  0  0  0  0  0  0  0  0
   -3.3116    7.6127  -19.3687 C   0  0  0  0  0  0  0  0  0  0  0  0
   -4.1391    6.5079  -19.6066 C   0  0  0  0  0  0  0  0  0  0  0  0
   -4.0200    5.2566  -18.7724 C   0  0  0  0  0  0  0  0  0  0  0  0
   -4.6188    5.4081  -17.4593 N   0  0  0  0  0  0  0  0  0  0  0  0
   -3.8743    5.8454  -16.4099 N   0  0  0  0  0  0  0  0  0  0  0  0
   -4.7398    5.8164  -15.3898 C   0  0  0  0  0  0  0  0  0  0  0  0
   -6.0092    5.3267  -15.7611 C   0  0  0  0  0  0  0  0  0  0  0  0
   -7.2442    5.0653  -15.1595 C   0  0  0  0  0  0  0  0  0  0  0  0
   -7.4717    5.4929  -13.7672 C   0  0  0  0  0  0  0  0  0  0  0  0
   -7.3011    6.6210  -13.5185 O   0  0  0  0  0  0  0  0  0  0  0  0
   -7.9049    4.3211  -12.8578 N   0  0  0  0  0  0  0  0  0  0  0  0
   -8.1199    4.2748  -11.4781 C   0  0  0  0  0  0  0  0  0  0  0  0
   -8.0828    5.4549  -10.7082 C   0  0  0  0  0  0  0  0  0  0  0  0
   -8.2621    5.4179   -9.3221 C   0  0  0  0  0  0  0  0  0  0  0  0
   -8.4847    4.1851   -8.7446 C   0  0  0  0  0  0  0  0  0  0  0  0
   -8.5302    3.0073   -9.4857 C   0  0  0  0  0  0  0  0  0  0  0  0
   -8.3492    3.0369  -10.8618 C   0  0  0  0  0  0  0  0  0  0  0  0
   -8.7385    1.8487   -8.5678 C   0  0  0  0  0  0  0  0  0  0  0  0
   -8.9178    2.4863   -7.2783 N   0  0  0  0  0  0  0  0  0  0  0  0
   -8.6716    3.8418   -7.3302 C   0  0  0  0  0  0  0  0  0  0  0  0
   -8.5869    4.6155   -6.3954 O   0  0  0  0  0  0  0  0  0  0  0  0
   -8.2691    4.5391  -15.9483 C   0  0  0  0  0  0  0  0  0  0  0  0
   -8.0426    4.3533  -17.3135 C   0  0  0  0  0  0  0  0  0  0  0  0
   -9.1624    3.8666  -18.1908 C   0  0  0  0  0  0  0  0  0  0  0  0
   -6.8661    4.6090  -17.9337 N   0  0  0  0  0  0  0  0  0  0  0  0
   -5.9028    5.0751  -17.1174 C   0  0  0  0  0  0  0  0  0  0  0  0
   -5.0759    6.5777  -20.6454 C   0  0  0  0  0  0  0  0  0  0  0  0
   -5.1660    7.7174  -21.4467 C   0  0  0  0  0  0  0  0  0  0  0  0
  1  2  1  0
  2  3  1  0
  3  4  2  0
  4  5  1  0
  5  6  2  0
  6  7  1  0
  7  8  1  0
  8  9  1  0
  9 10  2  0
 10 11  1  0
 11 12  2  0
 12 13  1  0
 13 14  2  0
 13 15  1  0
 15 16  1  0
 16 17  2  0
 17 18  1  0
 18 19  2  0
 19 20  1  0
 20 21  2  0
 20 22  1  0
 22 23  1  0
 23 24  1  0
 24 25  2  0
 12 26  1  0
 26 27  2  0
 27 28  1  0
 27 29  1  0
 29 30  2  0
  6 31  1  0
 31 32  2  0
 32  3  1  0
 30  8  1  0
 30 11  1  0
 21 16  1  0
 24 19  1  0
M  END
>  <name>  (265) 
P116011

>  <alias>  (265) 
None

>  <smina_score_min>  (265) 
-8.828

>  <exports>  (265) 
['/opt/xchem-fragalysis-2/maxwin/BulkDock/OUTPUTS/openbind_xx01zvns2b_c2_elabs_1LOUTNY.sdf', '/opt/xchem-fragalysis-2/maxwin/BulkDock/OUTPUTS/openbind_xx01zvns2b_c2_elabs_1LSYIIV.sdf']

>  <tags>  (265) 
syndirella_placed,openbind_xx01zvns2b_c2_elabs,openbind_xx01zvns2b_c2_elabs_scored_6.2plus,syndirella_product,openbind_xx01zvns2b_c2_elabs_scored,openbind_xx01zvns2b_c2_elabs_scored_top80percent,BulkDock Fragalysis export

>  <subsites>  (265) 
1 - Z4590/B/203/1

>  <smiles>  (265) 
CCc1ccc(Cn2ncc3c(C(=O)Nc4ccc5c(c4)CNC5=O)cc(C)nc32)cc1

>  <HIPPO Pose ID>  (265) 
116011

>  <energy_score>  (265) 
-36.831042

>  <inchikey>  (265) 
QDFZBXNYTPQHIQ-UHFFFAOYSA-N

>  <gnina_score_min>  (265) 
6.406

>  <gnina_score>  (265) 
6.217

>  <ref_mols>  (265) 
Z3556a

>  <HIPPO Compound ID>  (265) 
179203

>  <distance_score>  (265) 
0.377409

>  <rmsd(smina/fragmenstein)>  (265) 
0.807

>  <ref_pdb>  (265) 
Z3556a

>  <inspiration_score>  (265) 
None

$$$$
P116012
     RDKit          3D

 32 36  0  0  0  0  0  0  0  0999 V2000
   -3.5788   10.0663  -23.2402 C   0  0  0  0  0  0  0  0  0  0  0  0
   -4.5166   10.1173  -22.0440 C   0  0  0  0  0  0  0  0  0  0  0  0
   -4.4135    8.8757  -21.1975 C   0  0  0  0  0  0  0  0  0  0  0  0
   -5.1872    7.7483  -21.4939 C   0  0  0  0  0  0  0  0  0  0  0  0
   -5.0865    6.5932  -20.7160 C   0  0  0  0  0  0  0  0  0  0  0  0
   -4.1908    6.5326  -19.6410 C   0  0  0  0  0  0  0  0  0  0  0  0
   -4.0584    5.2646  -18.8341 C   0  0  0  0  0  0  0  0  0  0  0  0
   -4.6260    5.3899  -17.5037 N   0  0  0  0  0  0  0  0  0  0  0  0
   -3.8574    5.8045  -16.4613 N   0  0  0  0  0  0  0  0  0  0  0  0
   -4.7109    5.7879  -15.4302 C   0  0  0  0  0  0  0  0  0  0  0  0
   -5.9899    5.3103  -15.7840 C   0  0  0  0  0  0  0  0  0  0  0  0
   -7.2210    5.0648  -15.1672 C   0  0  0  0  0  0  0  0  0  0  0  0
   -7.4296    5.5121  -13.7786 C   0  0  0  0  0  0  0  0  0  0  0  0
   -7.2290    6.6391  -13.5461 O   0  0  0  0  0  0  0  0  0  0  0  0
   -7.8915    4.3647  -12.8517 N   0  0  0  0  0  0  0  0  0  0  0  0
   -8.1045    4.3434  -11.4713 C   0  0  0  0  0  0  0  0  0  0  0  0
   -8.0548    5.5352  -10.7275 C   0  0  0  0  0  0  0  0  0  0  0  0
   -8.2471    5.5304   -9.3432 C   0  0  0  0  0  0  0  0  0  0  0  0
   -8.4911    4.3209   -8.7213 C   0  0  0  0  0  0  0  0  0  0  0  0
   -8.5438    3.1372   -9.4494 C   0  0  0  0  0  0  0  0  0  0  0  0
   -8.3547    3.1279  -10.8266 C   0  0  0  0  0  0  0  0  0  0  0  0
   -8.8081    1.9938   -8.5198 C   0  0  0  0  0  0  0  0  0  0  0  0
   -8.9251    2.5895   -7.1667 N   0  0  0  0  0  0  0  0  0  0  0  0
  -10.1397    2.2056   -6.4765 C   0  0  0  0  0  0  0  0  0  0  0  0
   -8.7330    4.0418   -7.2751 C   0  0  0  0  0  0  0  0  0  0  0  0
   -8.2615    4.5486  -15.9426 C   0  0  0  0  0  0  0  0  0  0  0  0
   -8.0518    4.3533  -17.3091 C   0  0  0  0  0  0  0  0  0  0  0  0
   -9.1859    3.8806  -18.1754 C   0  0  0  0  0  0  0  0  0  0  0  0
   -6.8774    4.5872  -17.9406 N   0  0  0  0  0  0  0  0  0  0  0  0
   -5.9028    5.0542  -17.1401 C   0  0  0  0  0  0  0  0  0  0  0  0
   -3.4116    7.6595  -19.3483 C   0  0  0  0  0  0  0  0  0  0  0  0
   -3.5226    8.8201  -20.1187 C   0  0  0  0  0  0  0  0  0  0  0  0
  1  2  1  0
  2  3  1  0
  3  4  2  0
  4  5  1  0
  5  6  2  0
  6  7  1  0
  7  8  1  0
  8  9  1  0
  9 10  2  0
 10 11  1  0
 11 12  2  0
 12 13  1  0
 13 14  2  0
 13 15  1  0
 15 16  1  0
 16 17  2  0
 17 18  1  0
 18 19  2  0
 19 20  1  0
 20 21  2  0
 20 22  1  0
 22 23  1  0
 23 24  1  0
 23 25  1  0
 12 26  1  0
 26 27  2  0
 27 28  1  0
 27 29  1  0
 29 30  2  0
  6 31  1  0
 31 32  2  0
 32  3  1  0
 30  8  1  0
 30 11  1  0
 21 16  1  0
 25 19  1  0
M  END
>  <name>  (266) 
P116012

>  <alias>  (266) 
None

>  <smina_score_min>  (266) 
-8.755

>  <exports>  (266) 
['/opt/xchem-fragalysis-2/maxwin/BulkDock/OUTPUTS/openbind_xx01zvns2b_c2_elabs_1LOUTNY.sdf', '/opt/xchem-fragalysis-2/maxwin/BulkDock/OUTPUTS/openbind_xx01zvns2b_c2_elabs_1LSYIIV.sdf']

>  <tags>  (266) 
syndirella_placed,openbind_xx01zvns2b_c2_elabs,openbind_xx01zvns2b_c2_elabs_scored_6.2plus,syndirella_product,openbind_xx01zvns2b_c2_elabs_scored,openbind_xx01zvns2b_c2_elabs_scored_top80percent,BulkDock Fragalysis export

>  <subsites>  (266) 
1 - Z4590/B/203/1

>  <smiles>  (266) 
CCc1ccc(Cn2ncc3c(C(=O)Nc4ccc5c(c4)CN(C)C5)cc(C)nc32)cc1

>  <HIPPO Pose ID>  (266) 
116012

>  <energy_score>  (266) 
-51.023032

>  <inchikey>  (266) 
NHGWLMMGAIYWMU-UHFFFAOYSA-N

>  <gnina_score_min>  (266) 
6.347

>  <gnina_score>  (266) 
6.226

>  <ref_mols>  (266) 
Z3556a

>  <HIPPO Compound ID>  (266) 
179204

>  <distance_score>  (266) 
0.388741

>  <rmsd(smina/fragmenstein)>  (266) 
0.94

>  <ref_pdb>  (266) 
Z3556a

>  <inspiration_score>  (266) 
None

$$$$
P116022
     RDKit          3D

 32 37  0  0  0  0  0  0  0  0999 V2000
   -9.3385    3.9234  -18.0228 C   0  0  0  0  0  0  0  0  0  0  0  0
   -8.1703    4.3523  -17.1828 C   0  0  0  0  0  0  0  0  0  0  0  0
   -8.2954    4.5027  -15.8045 C   0  0  0  0  0  0  0  0  0  0  0  0
   -7.1867    4.9292  -15.0690 C   0  0  0  0  0  0  0  0  0  0  0  0
   -7.3258    5.3695  -13.6649 C   0  0  0  0  0  0  0  0  0  0  0  0
   -7.0048    6.4711  -13.4398 O   0  0  0  0  0  0  0  0  0  0  0  0
   -7.8042    4.2471  -12.7087 N   0  0  0  0  0  0  0  0  0  0  0  0
   -8.0692    4.2754  -11.3333 C   0  0  0  0  0  0  0  0  0  0  0  0
   -7.8283    5.4636  -10.6109 C   0  0  0  0  0  0  0  0  0  0  0  0
   -7.9723    5.5234   -9.2208 C   0  0  0  0  0  0  0  0  0  0  0  0
   -8.3823    4.3831   -8.5637 C   0  0  0  0  0  0  0  0  0  0  0  0
   -8.6808    3.2249   -9.2820 C   0  0  0  0  0  0  0  0  0  0  0  0
   -8.5178    3.1332  -10.6603 C   0  0  0  0  0  0  0  0  0  0  0  0
   -9.1496    2.2323   -8.3000 C   0  0  0  0  0  0  0  0  0  0  0  0
   -9.5427    1.1081   -8.5158 O   0  0  0  0  0  0  0  0  0  0  0  0
   -9.1106    2.8272   -7.0542 N   0  0  0  0  0  0  0  0  0  0  0  0
   -8.5526    4.1474   -7.1025 C   0  0  0  0  0  0  0  0  0  0  0  0
   -5.9635    5.1147  -15.7404 C   0  0  0  0  0  0  0  0  0  0  0  0
   -4.6217    5.4302  -15.4432 C   0  0  0  0  0  0  0  0  0  0  0  0
   -4.0603    5.6512  -14.0068 C   0  0  0  0  0  0  0  0  0  0  0  0
   -2.6838    6.2369  -13.8116 C   0  0  0  0  0  0  0  0  0  0  0  0
   -3.8973    7.0627  -13.5041 C   0  0  0  0  0  0  0  0  0  0  0  0
   -3.8314    5.4488  -16.5180 N   0  0  0  0  0  0  0  0  0  0  0  0
   -4.6751    5.2014  -17.5639 N   0  0  0  0  0  0  0  0  0  0  0  0
   -4.1783    5.2273  -18.9023 C   0  0  0  0  0  0  0  0  0  0  0  0
   -2.7925    5.2726  -19.1213 C   0  0  0  0  0  0  0  0  0  0  0  0
   -2.2827    5.2706  -20.4225 C   0  0  0  0  0  0  0  0  0  0  0  0
   -3.1472    5.2470  -21.5152 C   0  0  0  0  0  0  0  0  0  0  0  0
   -4.5238    5.2220  -21.3077 C   0  0  0  0  0  0  0  0  0  0  0  0
   -5.0391    5.2066  -20.0083 C   0  0  0  0  0  0  0  0  0  0  0  0
   -5.9679    4.9444  -17.1174 C   0  0  0  0  0  0  0  0  0  0  0  0
   -7.0310    4.5797  -17.8602 N   0  0  0  0  0  0  0  0  0  0  0  0
  1  2  1  0
  2  3  2  0
  3  4  1  0
  4  5  1  0
  5  6  2  0
  5  7  1  0
  7  8  1  0
  8  9  2  0
  9 10  1  0
 10 11  2  0
 11 12  1  0
 12 13  2  0
 12 14  1  0
 14 15  2  0
 14 16  1  0
 16 17  1  0
  4 18  2  0
 18 19  1  0
 19 20  1  0
 20 21  1  0
 21 22  1  0
 19 23  2  0
 23 24  1  0
 24 25  1  0
 25 26  2  0
 26 27  1  0
 27 28  2  0
 28 29  1  0
 29 30  2  0
 24 31  1  0
 31 32  2  0
 32  2  1  0
 13  8  1  0
 31 18  1  0
 17 11  1  0
 22 20  1  0
 30 25  1  0
M  END
>  <name>  (267) 
P116022

>  <alias>  (267) 
None

>  <smina_score_min>  (267) 
-9.011

>  <exports>  (267) 
['/opt/xchem-fragalysis-2/maxwin/BulkDock/OUTPUTS/openbind_xx01zvns2b_c2_elabs_1LOUTNY.sdf', '/opt/xchem-fragalysis-2/maxwin/BulkDock/OUTPUTS/openbind_xx01zvns2b_c2_elabs_1LSYIIV.sdf']

>  <tags>  (267) 
syndirella_placed,openbind_xx01zvns2b_c2_elabs,openbind_xx01zvns2b_c2_elabs_scored_6.2plus,syndirella_product,openbind_xx01zvns2b_c2_elabs_scored,openbind_xx01zvns2b_c2_elabs_scored_top80percent,BulkDock Fragalysis export

>  <subsites>  (267) 
1 - Z4590/B/203/1

>  <smiles>  (267) 
Cc1cc(C(=O)Nc2ccc3c(c2)C(=O)NC3)c2c(C3CC3)nn(-c3ccccc3)c2n1

>  <HIPPO Pose ID>  (267) 
116022

>  <energy_score>  (267) 
-88.512506

>  <inchikey>  (267) 
CGUARQLWKWFMNQ-UHFFFAOYSA-N

>  <gnina_score_min>  (267) 
6.348

>  <gnina_score>  (267) 
6.372

>  <ref_mols>  (267) 
Z3556a

>  <HIPPO Compound ID>  (267) 
179211

>  <distance_score>  (267) 
0.37559

>  <rmsd(smina/fragmenstein)>  (267) 
0.675

>  <ref_pdb>  (267) 
Z3556a

>  <inspiration_score>  (267) 
None

$$$$
P116023
     RDKit          3D

 32 36  0  0  0  0  0  0  0  0999 V2000
   -7.8972    4.9948   -3.0463 C   0  0  0  0  0  0  0  0  0  0  0  0
   -8.8209    4.2144   -3.9678 C   0  0  0  0  0  0  0  0  0  0  0  0
   -8.0381    3.4388   -5.0284 C   0  0  0  0  0  0  0  0  0  0  0  0
   -8.9694    2.7367   -6.0370 C   0  0  0  0  0  0  0  0  0  0  0  0
   -8.8310    3.2770   -7.3676 N   0  0  0  0  0  0  0  0  0  0  0  0
   -8.7556    2.4321   -8.5590 C   0  0  0  0  0  0  0  0  0  0  0  0
   -8.5067    3.4428   -9.6329 C   0  0  0  0  0  0  0  0  0  0  0  0
   -8.2455    3.2872  -10.9854 C   0  0  0  0  0  0  0  0  0  0  0  0
   -7.9926    4.4453  -11.7344 C   0  0  0  0  0  0  0  0  0  0  0  0
   -7.6587    4.3606  -13.0823 N   0  0  0  0  0  0  0  0  0  0  0  0
   -7.3445    5.4681  -14.1075 C   0  0  0  0  0  0  0  0  0  0  0  0
   -7.2404    6.6223  -13.9670 O   0  0  0  0  0  0  0  0  0  0  0  0
   -7.1454    4.9552  -15.4626 C   0  0  0  0  0  0  0  0  0  0  0  0
   -8.2155    4.4671  -16.2057 C   0  0  0  0  0  0  0  0  0  0  0  0
   -8.0529    4.3395  -17.5827 C   0  0  0  0  0  0  0  0  0  0  0  0
   -9.2196    3.8822  -18.4099 C   0  0  0  0  0  0  0  0  0  0  0  0
   -6.9194    4.6584  -18.2569 N   0  0  0  0  0  0  0  0  0  0  0  0
   -5.9072    5.0821  -17.4782 C   0  0  0  0  0  0  0  0  0  0  0  0
   -5.9353    5.2297  -16.1038 C   0  0  0  0  0  0  0  0  0  0  0  0
   -4.6596    5.7171  -15.7651 C   0  0  0  0  0  0  0  0  0  0  0  0
   -3.8737    5.8865  -16.8322 N   0  0  0  0  0  0  0  0  0  0  0  0
   -4.6821    5.5591  -17.8769 N   0  0  0  0  0  0  0  0  0  0  0  0
   -4.2955    5.9992  -19.1994 C   0  0  0  0  0  0  0  0  0  0  0  0
   -5.0672    7.2358  -19.6710 C   0  0  0  0  0  0  0  0  0  0  0  0
   -4.7278    7.3033  -21.1503 C   0  0  0  0  0  0  0  0  0  0  0  0
   -4.7324    5.8497  -21.6034 C   0  0  0  0  0  0  0  0  0  0  0  0
   -4.4431    5.0099  -20.3565 C   0  0  0  0  0  0  0  0  0  0  0  0
   -8.0308    5.7223  -11.1337 C   0  0  0  0  0  0  0  0  0  0  0  0
   -8.3127    5.8746   -9.7861 C   0  0  0  0  0  0  0  0  0  0  0  0
   -8.5386    4.7220   -9.0749 C   0  0  0  0  0  0  0  0  0  0  0  0
   -8.8052    4.6193   -7.6498 C   0  0  0  0  0  0  0  0  0  0  0  0
   -8.9377    5.5760   -6.9096 O   0  0  0  0  0  0  0  0  0  0  0  0
  1  2  1  0
  2  3  1  0
  3  4  1  0
  4  5  1  0
  5  6  1  0
  6  7  1  0
  7  8  2  0
  8  9  1  0
  9 10  1  0
 10 11  1  0
 11 12  2  0
 11 13  1  0
 13 14  2  0
 14 15  1  0
 15 16  1  0
 15 17  2  0
 17 18  1  0
 18 19  2  0
 19 20  1  0
 20 21  2  0
 21 22  1  0
 22 23  1  0
 23 24  1  0
 24 25  1  0
 25 26  1  0
 26 27  1  0
  9 28  2  0
 28 29  1  0
 29 30  2  0
 30 31  1  0
 31 32  2  0
 31  5  1  0
 30  7  1  0
 19 13  1  0
 27 23  1  0
 22 18  1  0
M  END
>  <name>  (268) 
P116023

>  <alias>  (268) 
None

>  <smina_score_min>  (268) 
-8.33

>  <exports>  (268) 
['/opt/xchem-fragalysis-2/maxwin/BulkDock/OUTPUTS/openbind_xx01zvns2b_c2_elabs_1LOUTNY.sdf', '/opt/xchem-fragalysis-2/maxwin/BulkDock/OUTPUTS/openbind_xx01zvns2b_c2_elabs_1LSYIIV.sdf']

>  <tags>  (268) 
syndirella_placed,openbind_xx01zvns2b_c2_elabs,openbind_xx01zvns2b_c2_elabs_scored_6.2plus,syndirella_product,openbind_xx01zvns2b_c2_elabs_scored,openbind_xx01zvns2b_c2_elabs_scored_top80percent,BulkDock Fragalysis export

>  <subsites>  (268) 
1 - Z4590/B/203/1

>  <smiles>  (268) 
CCCCN1Cc2cc(NC(=O)c3cc(C)nc4c3cnn4C3CCCC3)ccc2C1=O

>  <HIPPO Pose ID>  (268) 
116023

>  <energy_score>  (268) 
-38.508464

>  <inchikey>  (268) 
OGXZJHBFWJRDNQ-UHFFFAOYSA-N

>  <gnina_score_min>  (268) 
6.355

>  <gnina_score>  (268) 
6.359

>  <ref_mols>  (268) 
Z3556a

>  <HIPPO Compound ID>  (268) 
179213

>  <distance_score>  (268) 
0.684501

>  <rmsd(smina/fragmenstein)>  (268) 
0.577

>  <ref_pdb>  (268) 
Z3556a

>  <inspiration_score>  (268) 
None

$$$$
P116028
     RDKit          3D

 32 35  0  0  0  0  0  0  0  0999 V2000
   -7.9624    4.5535   -3.2739 C   0  0  0  0  0  0  0  0  0  0  0  0
   -7.9843    3.7636   -4.5742 C   0  0  0  0  0  0  0  0  0  0  0  0
   -9.4183    3.3922   -4.9659 C   0  0  0  0  0  0  0  0  0  0  0  0
   -9.5364    2.5619   -6.2494 C   0  0  0  0  0  0  0  0  0  0  0  0
   -8.9658    3.1539   -7.4369 N   0  0  0  0  0  0  0  0  0  0  0  0
   -8.7744    2.3571   -8.6496 C   0  0  0  0  0  0  0  0  0  0  0  0
   -8.4611    3.3986   -9.6735 C   0  0  0  0  0  0  0  0  0  0  0  0
   -8.1930    3.2931  -11.0295 C   0  0  0  0  0  0  0  0  0  0  0  0
   -7.9705    4.4800  -11.7432 C   0  0  0  0  0  0  0  0  0  0  0  0
   -7.6907    4.4479  -13.1048 N   0  0  0  0  0  0  0  0  0  0  0  0
   -7.4003    5.5936  -14.0949 C   0  0  0  0  0  0  0  0  0  0  0  0
   -7.2740    6.7391  -13.9106 O   0  0  0  0  0  0  0  0  0  0  0  0
   -7.2037    5.1183  -15.4625 C   0  0  0  0  0  0  0  0  0  0  0  0
   -8.2710    4.6658  -16.2315 C   0  0  0  0  0  0  0  0  0  0  0  0
   -8.0774    4.4905  -17.6015 C   0  0  0  0  0  0  0  0  0  0  0  0
   -9.2016    3.9664  -18.4849 C   0  0  0  0  0  0  0  0  0  0  0  0
  -10.5754    4.6027  -18.3762 C   0  0  0  0  0  0  0  0  0  0  0  0
   -9.3674    2.4970  -18.2056 C   0  0  0  0  0  0  0  0  0  0  0  0
   -6.8891    4.7050  -18.2215 N   0  0  0  0  0  0  0  0  0  0  0  0
   -5.8811    5.1123  -17.4266 C   0  0  0  0  0  0  0  0  0  0  0  0
   -5.9631    5.3272  -16.0634 C   0  0  0  0  0  0  0  0  0  0  0  0
   -4.6860    5.7701  -15.6816 C   0  0  0  0  0  0  0  0  0  0  0  0
   -3.8399    5.8386  -16.7099 N   0  0  0  0  0  0  0  0  0  0  0  0
   -4.5941    5.4519  -17.7789 N   0  0  0  0  0  0  0  0  0  0  0  0
   -3.9999    5.5977  -19.1040 C   0  0  0  0  0  0  0  0  0  0  0  0
   -4.9049    5.2678  -20.2922 C   0  0  0  0  0  0  0  0  0  0  0  0
   -2.6616    4.8569  -19.2103 C   0  0  0  0  0  0  0  0  0  0  0  0
   -8.0143    5.7339  -11.0981 C   0  0  0  0  0  0  0  0  0  0  0  0
   -8.2842    5.8339   -9.7434 C   0  0  0  0  0  0  0  0  0  0  0  0
   -8.5025    4.6548   -9.0728 C   0  0  0  0  0  0  0  0  0  0  0  0
   -8.8811    4.5070   -7.6785 C   0  0  0  0  0  0  0  0  0  0  0  0
   -9.0994    5.4575   -6.9505 O   0  0  0  0  0  0  0  0  0  0  0  0
  1  2  1  0
  2  3  1  0
  3  4  1  0
  4  5  1  0
  5  6  1  0
  6  7  1  0
  7  8  2  0
  8  9  1  0
  9 10  1  0
 10 11  1  0
 11 12  2  0
 11 13  1  0
 13 14  2  0
 14 15  1  0
 15 16  1  0
 16 17  1  0
 16 18  1  0
 15 19  2  0
 19 20  1  0
 20 21  2  0
 21 22  1  0
 22 23  2  0
 23 24  1  0
 24 25  1  0
 25 26  1  0
 25 27  1  0
  9 28  2  0
 28 29  1  0
 29 30  2  0
 30 31  1  0
 31 32  2  0
 31  5  1  0
 30  7  1  0
 21 13  1  0
 24 20  1  0
M  END
>  <name>  (269) 
P116028

>  <alias>  (269) 
None

>  <smina_score_min>  (269) 
-7.092

>  <exports>  (269) 
['/opt/xchem-fragalysis-2/maxwin/BulkDock/OUTPUTS/openbind_xx01zvns2b_c2_elabs_1LOUTNY.sdf', '/opt/xchem-fragalysis-2/maxwin/BulkDock/OUTPUTS/openbind_xx01zvns2b_c2_elabs_1LSYIIV.sdf']

>  <tags>  (269) 
syndirella_placed,openbind_xx01zvns2b_c2_elabs,openbind_xx01zvns2b_c2_elabs_scored_6.2plus,syndirella_product,openbind_xx01zvns2b_c2_elabs_scored,openbind_xx01zvns2b_c2_elabs_scored_top80percent,BulkDock Fragalysis export

>  <subsites>  (269) 
1 - Z4590/B/203/1

>  <smiles>  (269) 
CCCCN1Cc2cc(NC(=O)c3cc(C(C)C)nc4c3cnn4C(C)C)ccc2C1=O

>  <HIPPO Pose ID>  (269) 
116028

>  <energy_score>  (269) 
-17.889099

>  <inchikey>  (269) 
UCKCJFMVLDWPFI-UHFFFAOYSA-N

>  <gnina_score_min>  (269) 
6.379

>  <gnina_score>  (269) 
6.393

>  <ref_mols>  (269) 
Z3556a

>  <HIPPO Compound ID>  (269) 
179223

>  <distance_score>  (269) 
0.654035

>  <rmsd(smina/fragmenstein)>  (269) 
0.387

>  <ref_pdb>  (269) 
Z3556a

>  <inspiration_score>  (269) 
None

$$$$
P116030
     RDKit          3D

 32 35  0  0  0  0  0  0  0  0999 V2000
  -10.1199    1.1681   -6.6385 C   0  0  0  0  0  0  0  0  0  0  0  0
  -10.5526    2.1044   -5.5298 C   0  0  0  0  0  0  0  0  0  0  0  0
  -12.0524    2.0975   -5.4409 C   0  0  0  0  0  0  0  0  0  0  0  0
  -10.0022    3.5264   -5.6239 C   0  0  0  0  0  0  0  0  0  0  0  0
   -8.4902    3.5979   -5.8473 C   0  0  0  0  0  0  0  0  0  0  0  0
   -8.0424    3.9881   -7.1720 N   0  0  0  0  0  0  0  0  0  0  0  0
   -8.2879    5.3872   -7.5078 C   0  0  0  0  0  0  0  0  0  0  0  0
   -8.1882    5.4025   -8.9946 C   0  0  0  0  0  0  0  0  0  0  0  0
   -8.0691    6.4879   -9.8249 C   0  0  0  0  0  0  0  0  0  0  0  0
   -7.9330    6.2393  -11.1852 C   0  0  0  0  0  0  0  0  0  0  0  0
   -7.9341    4.9285  -11.7020 C   0  0  0  0  0  0  0  0  0  0  0  0
   -7.6767    4.7475  -13.0581 N   0  0  0  0  0  0  0  0  0  0  0  0
   -7.3247    5.7716  -14.1563 C   0  0  0  0  0  0  0  0  0  0  0  0
   -7.2703    6.9369  -14.1150 O   0  0  0  0  0  0  0  0  0  0  0  0
   -6.9889    5.1450  -15.4357 C   0  0  0  0  0  0  0  0  0  0  0  0
   -7.9673    4.5666  -16.2427 C   0  0  0  0  0  0  0  0  0  0  0  0
   -7.6328    4.2450  -17.5616 C   0  0  0  0  0  0  0  0  0  0  0  0
   -8.6500    3.7024  -18.5405 C   0  0  0  0  0  0  0  0  0  0  0  0
   -9.5952    4.7986  -18.9169 C   0  0  0  0  0  0  0  0  0  0  0  0
   -9.4537    2.5389  -18.0448 C   0  0  0  0  0  0  0  0  0  0  0  0
   -6.4232    4.4871  -18.1181 N   0  0  0  0  0  0  0  0  0  0  0  0
   -5.5191    5.0127  -17.2824 C   0  0  0  0  0  0  0  0  0  0  0  0
   -5.7093    5.3503  -15.9593 C   0  0  0  0  0  0  0  0  0  0  0  0
   -4.4714    5.8885  -15.5548 C   0  0  0  0  0  0  0  0  0  0  0  0
   -3.5594    5.8931  -16.5358 N   0  0  0  0  0  0  0  0  0  0  0  0
   -4.2365    5.3740  -17.5911 N   0  0  0  0  0  0  0  0  0  0  0  0
   -3.6621    5.3742  -18.9302 C   0  0  0  0  0  0  0  0  0  0  0  0
   -3.6878    6.7827  -19.5253 C   0  0  0  0  0  0  0  0  0  0  0  0
   -2.2506    4.7919  -18.9710 C   0  0  0  0  0  0  0  0  0  0  0  0
   -8.1261    3.8348  -10.8556 C   0  0  0  0  0  0  0  0  0  0  0  0
   -8.2324    4.0988   -9.4975 C   0  0  0  0  0  0  0  0  0  0  0  0
   -8.4503    3.1774   -8.3387 C   0  0  0  0  0  0  0  0  0  0  0  0
  1  2  1  0
  2  3  1  0
  2  4  1  0
  4  5  1  0
  5  6  1  0
  6  7  1  0
  7  8  1  0
  8  9  2  0
  9 10  1  0
 10 11  2  0
 11 12  1  0
 12 13  1  0
 13 14  2  0
 13 15  1  0
 15 16  2  0
 16 17  1  0
 17 18  1  0
 18 19  1  0
 18 20  1  0
 17 21  2  0
 21 22  1  0
 22 23  2  0
 23 24  1  0
 24 25  2  0
 25 26  1  0
 26 27  1  0
 27 28  1  0
 27 29  1  0
 11 30  1  0
 30 31  2  0
 31 32  1  0
 32  6  1  0
 31  8  1  0
 23 15  1  0
 26 22  1  0
M  END
>  <name>  (270) 
P116030

>  <alias>  (270) 
None

>  <smina_score_min>  (270) 
-6.921

>  <exports>  (270) 
['/opt/xchem-fragalysis-2/maxwin/BulkDock/OUTPUTS/openbind_xx01zvns2b_c2_elabs_1LOUTNY.sdf', '/opt/xchem-fragalysis-2/maxwin/BulkDock/OUTPUTS/openbind_xx01zvns2b_c2_elabs_1LSYIIV.sdf']

>  <tags>  (270) 
syndirella_placed,openbind_xx01zvns2b_c2_elabs,openbind_xx01zvns2b_c2_elabs_scored_6.2plus,syndirella_product,openbind_xx01zvns2b_c2_elabs_scored,openbind_xx01zvns2b_c2_elabs_scored_top80percent,BulkDock Fragalysis export

>  <subsites>  (270) 
1 - Z4590/B/203/1

>  <smiles>  (270) 
CC(C)CCN1Cc2ccc(NC(=O)c3cc(C(C)C)nc4c3cnn4C(C)C)cc2C1

>  <HIPPO Pose ID>  (270) 
116030

>  <energy_score>  (270) 
-16.704989

>  <inchikey>  (270) 
DJOZIXQGACJUGQ-UHFFFAOYSA-N

>  <gnina_score_min>  (270) 
6.41

>  <gnina_score>  (270) 
6.315

>  <ref_mols>  (270) 
Z3556a

>  <HIPPO Compound ID>  (270) 
179225

>  <distance_score>  (270) 
1.054992

>  <rmsd(smina/fragmenstein)>  (270) 
0.614

>  <ref_pdb>  (270) 
Z3556a

>  <inspiration_score>  (270) 
None

$$$$
P116034
     RDKit          3D

 32 35  0  0  0  0  0  0  0  0999 V2000
   -6.6229    4.4338   -3.2303 C   0  0  0  0  0  0  0  0  0  0  0  0
   -6.1868    3.8374   -4.4498 O   0  0  0  0  0  0  0  0  0  0  0  0
   -7.0200    4.2330   -5.5469 C   0  0  0  0  0  0  0  0  0  0  0  0
   -8.3100    3.3884   -5.7220 C   0  0  0  0  0  0  0  0  0  0  0  0
   -8.9529    3.6316   -7.0077 N   0  0  0  0  0  0  0  0  0  0  0  0
   -8.7653    2.7513   -8.1750 C   0  0  0  0  0  0  0  0  0  0  0  0
   -8.5368    3.7221   -9.2916 C   0  0  0  0  0  0  0  0  0  0  0  0
   -8.1957    3.5311  -10.6233 C   0  0  0  0  0  0  0  0  0  0  0  0
   -7.9198    4.6745  -11.3919 C   0  0  0  0  0  0  0  0  0  0  0  0
   -7.5709    4.5724  -12.7323 N   0  0  0  0  0  0  0  0  0  0  0  0
   -6.9957    5.6300  -13.7040 C   0  0  0  0  0  0  0  0  0  0  0  0
   -6.6533    6.7297  -13.5099 O   0  0  0  0  0  0  0  0  0  0  0  0
   -6.9867    5.1640  -15.0899 C   0  0  0  0  0  0  0  0  0  0  0  0
   -8.1783    4.7669  -15.6766 C   0  0  0  0  0  0  0  0  0  0  0  0
   -8.2260    4.5461  -17.0520 C   0  0  0  0  0  0  0  0  0  0  0  0
   -9.5334    3.9937  -17.5898 C   0  0  0  0  0  0  0  0  0  0  0  0
  -10.3799    4.7484  -18.5668 C   0  0  0  0  0  0  0  0  0  0  0  0
   -9.3442    2.6178  -18.1307 C   0  0  0  0  0  0  0  0  0  0  0  0
   -7.1616    4.7112  -17.8772 N   0  0  0  0  0  0  0  0  0  0  0  0
   -6.0126    5.0689  -17.2513 C   0  0  0  0  0  0  0  0  0  0  0  0
   -5.8577    5.2953  -15.8897 C   0  0  0  0  0  0  0  0  0  0  0  0
   -4.5059    5.6301  -15.7148 C   0  0  0  0  0  0  0  0  0  0  0  0
   -3.8195    5.5828  -16.8564 N   0  0  0  0  0  0  0  0  0  0  0  0
   -4.7674    5.3035  -17.7954 N   0  0  0  0  0  0  0  0  0  0  0  0
   -4.3311    5.2916  -19.1870 C   0  0  0  0  0  0  0  0  0  0  0  0
   -3.6639    6.6232  -19.5655 C   0  0  0  0  0  0  0  0  0  0  0  0
   -5.4119    4.9870  -20.2201 C   0  0  0  0  0  0  0  0  0  0  0  0
   -8.0191    5.9667  -10.8392 C   0  0  0  0  0  0  0  0  0  0  0  0
   -8.4150    6.1514   -9.5266 C   0  0  0  0  0  0  0  0  0  0  0  0
   -8.6719    5.0161   -8.7962 C   0  0  0  0  0  0  0  0  0  0  0  0
   -9.0215    4.9613   -7.3858 C   0  0  0  0  0  0  0  0  0  0  0  0
   -9.1968    5.9377   -6.6794 O   0  0  0  0  0  0  0  0  0  0  0  0
  1  2  1  0
  2  3  1  0
  3  4  1  0
  4  5  1  0
  5  6  1  0
  6  7  1  0
  7  8  2  0
  8  9  1  0
  9 10  1  0
 10 11  1  0
 11 12  2  0
 11 13  1  0
 13 14  2  0
 14 15  1  0
 15 16  1  0
 16 17  1  0
 16 18  1  0
 15 19  2  0
 19 20  1  0
 20 21  2  0
 21 22  1  0
 22 23  2  0
 23 24  1  0
 24 25  1  0
 25 26  1  0
 25 27  1  0
  9 28  2  0
 28 29  1  0
 29 30  2  0
 30 31  1  0
 31 32  2  0
 31  5  1  0
 30  7  1  0
 21 13  1  0
 24 20  1  0
M  END
>  <name>  (271) 
P116034

>  <alias>  (271) 
None

>  <smina_score_min>  (271) 
-6.075

>  <exports>  (271) 
['/opt/xchem-fragalysis-2/maxwin/BulkDock/OUTPUTS/openbind_xx01zvns2b_c2_elabs_1LOUTNY.sdf', '/opt/xchem-fragalysis-2/maxwin/BulkDock/OUTPUTS/openbind_xx01zvns2b_c2_elabs_1LSYIIV.sdf']

>  <tags>  (271) 
syndirella_placed,openbind_xx01zvns2b_c2_elabs,openbind_xx01zvns2b_c2_elabs_scored_6.2plus,syndirella_product,openbind_xx01zvns2b_c2_elabs_scored,openbind_xx01zvns2b_c2_elabs_scored_top80percent,BulkDock Fragalysis export

>  <subsites>  (271) 
1 - Z4590/B/203/1

>  <smiles>  (271) 
COCCN1Cc2cc(NC(=O)c3cc(C(C)C)nc4c3cnn4C(C)C)ccc2C1=O

>  <HIPPO Pose ID>  (271) 
116034

>  <energy_score>  (271) 
-22.109644

>  <inchikey>  (271) 
VQRNBDVBQVNPCQ-UHFFFAOYSA-N

>  <gnina_score_min>  (271) 
6.311

>  <gnina_score>  (271) 
6.012

>  <ref_mols>  (271) 
Z3556a

>  <HIPPO Compound ID>  (271) 
179229

>  <distance_score>  (271) 
0.733493

>  <rmsd(smina/fragmenstein)>  (271) 
1.032

>  <ref_pdb>  (271) 
Z3556a

>  <inspiration_score>  (271) 
None

$$$$
P116037
     RDKit          3D

 32 36  0  0  0  0  0  0  0  0999 V2000
   -3.9516    5.3881   -6.3296 C   0  0  0  0  0  0  0  0  0  0  0  0
   -4.9170    4.7171   -5.5169 O   0  0  0  0  0  0  0  0  0  0  0  0
   -6.2074    4.7128   -6.1511 C   0  0  0  0  0  0  0  0  0  0  0  0
   -7.2401    4.1697   -5.1560 C   0  0  0  0  0  0  0  0  0  0  0  0
   -8.3939    3.3081   -5.7192 C   0  0  0  0  0  0  0  0  0  0  0  0
   -9.1101    3.6911   -6.9252 N   0  0  0  0  0  0  0  0  0  0  0  0
   -9.0344    5.0968   -7.2941 C   0  0  0  0  0  0  0  0  0  0  0  0
   -8.6479    5.1112   -8.7324 C   0  0  0  0  0  0  0  0  0  0  0  0
   -8.4043    6.2083   -9.5288 C   0  0  0  0  0  0  0  0  0  0  0  0
   -8.1249    5.9903  -10.8755 C   0  0  0  0  0  0  0  0  0  0  0  0
   -8.0967    4.6939  -11.4218 C   0  0  0  0  0  0  0  0  0  0  0  0
   -7.8502    4.5517  -12.7919 N   0  0  0  0  0  0  0  0  0  0  0  0
   -7.3953    5.5915  -13.8449 C   0  0  0  0  0  0  0  0  0  0  0  0
   -7.2298    6.7450  -13.7486 O   0  0  0  0  0  0  0  0  0  0  0  0
   -7.1832    5.0235  -15.1867 C   0  0  0  0  0  0  0  0  0  0  0  0
   -8.2435    4.5099  -15.9370 C   0  0  0  0  0  0  0  0  0  0  0  0
   -8.0634    4.3105  -17.3081 C   0  0  0  0  0  0  0  0  0  0  0  0
   -9.2189    3.8508  -18.1530 C   0  0  0  0  0  0  0  0  0  0  0  0
   -6.9022    4.5383  -17.9670 N   0  0  0  0  0  0  0  0  0  0  0  0
   -5.9048    4.9921  -17.1878 C   0  0  0  0  0  0  0  0  0  0  0  0
   -5.9625    5.2555  -15.8316 C   0  0  0  0  0  0  0  0  0  0  0  0
   -4.6866    5.7666  -15.5178 C   0  0  0  0  0  0  0  0  0  0  0  0
   -3.8693    5.8134  -16.5760 N   0  0  0  0  0  0  0  0  0  0  0  0
   -4.6391    5.3368  -17.5868 N   0  0  0  0  0  0  0  0  0  0  0  0
   -4.1590    5.3408  -18.9584 C   0  0  0  0  0  0  0  0  0  0  0  0
   -4.2917    6.7346  -19.5994 C   0  0  0  0  0  0  0  0  0  0  0  0
   -2.9499    7.0093  -20.2672 C   0  0  0  0  0  0  0  0  0  0  0  0
   -1.9541    6.2502  -19.4080 C   0  0  0  0  0  0  0  0  0  0  0  0
   -2.6809    4.9456  -19.1166 C   0  0  0  0  0  0  0  0  0  0  0  0
   -8.3274    3.5848  -10.5971 C   0  0  0  0  0  0  0  0  0  0  0  0
   -8.5918    3.8165   -9.2463 C   0  0  0  0  0  0  0  0  0  0  0  0
   -8.8621    2.8505   -8.1316 C   0  0  0  0  0  0  0  0  0  0  0  0
  1  2  1  0
  2  3  1  0
  3  4  1  0
  4  5  1  0
  5  6  1  0
  6  7  1  0
  7  8  1  0
  8  9  2  0
  9 10  1  0
 10 11  2  0
 11 12  1  0
 12 13  1  0
 13 14  2  0
 13 15  1  0
 15 16  2  0
 16 17  1  0
 17 18  1  0
 17 19  2  0
 19 20  1  0
 20 21  2  0
 21 22  1  0
 22 23  2  0
 23 24  1  0
 24 25  1  0
 25 26  1  0
 26 27  1  0
 27 28  1  0
 28 29  1  0
 11 30  1  0
 30 31  2  0
 31 32  1  0
 32  6  1  0
 31  8  1  0
 21 15  1  0
 29 25  1  0
 24 20  1  0
M  END
>  <name>  (272) 
P116037

>  <alias>  (272) 
None

>  <smina_score_min>  (272) 
-7.055

>  <exports>  (272) 
['/opt/xchem-fragalysis-2/maxwin/BulkDock/OUTPUTS/openbind_xx01zvns2b_c2_elabs_1LOUTNY.sdf', '/opt/xchem-fragalysis-2/maxwin/BulkDock/OUTPUTS/openbind_xx01zvns2b_c2_elabs_1LSYIIV.sdf']

>  <tags>  (272) 
syndirella_placed,openbind_xx01zvns2b_c2_elabs,openbind_xx01zvns2b_c2_elabs_scored_6.2plus,syndirella_product,openbind_xx01zvns2b_c2_elabs_scored,openbind_xx01zvns2b_c2_elabs_scored_top80percent,BulkDock Fragalysis export

>  <subsites>  (272) 
1 - Z4590/B/203/1

>  <smiles>  (272) 
COCCCN1Cc2ccc(NC(=O)c3cc(C)nc4c3cnn4C3CCCC3)cc2C1

>  <HIPPO Pose ID>  (272) 
116037

>  <energy_score>  (272) 
-31.460078

>  <inchikey>  (272) 
PCZXCVQRMDPAMO-UHFFFAOYSA-N

>  <gnina_score_min>  (272) 
6.21

>  <gnina_score>  (272) 
6.16

>  <ref_mols>  (272) 
Z3556a

>  <HIPPO Compound ID>  (272) 
179232

>  <distance_score>  (272) 
0.743018

>  <rmsd(smina/fragmenstein)>  (272) 
0.871

>  <ref_pdb>  (272) 
Z3556a

>  <inspiration_score>  (272) 
None

$$$$
P116038
     RDKit          3D

 32 36  0  0  0  0  0  0  0  0999 V2000
   -9.3076    3.9108  -18.0518 C   0  0  0  0  0  0  0  0  0  0  0  0
   -8.1261    4.3505  -17.2357 C   0  0  0  0  0  0  0  0  0  0  0  0
   -8.2377    4.5169  -15.8579 C   0  0  0  0  0  0  0  0  0  0  0  0
   -7.1204    4.9530  -15.1424 C   0  0  0  0  0  0  0  0  0  0  0  0
   -7.2333    5.3964  -13.7392 C   0  0  0  0  0  0  0  0  0  0  0  0
   -6.9243    6.5020  -13.5205 O   0  0  0  0  0  0  0  0  0  0  0  0
   -7.6986    4.2758  -12.7778 N   0  0  0  0  0  0  0  0  0  0  0  0
   -7.9628    4.3088  -11.4048 C   0  0  0  0  0  0  0  0  0  0  0  0
   -7.7914    5.5195  -10.6946 C   0  0  0  0  0  0  0  0  0  0  0  0
   -8.0277    5.6029   -9.3196 C   0  0  0  0  0  0  0  0  0  0  0  0
   -8.4381    4.4531   -8.6842 C   0  0  0  0  0  0  0  0  0  0  0  0
   -8.6210    3.2650   -9.3670 C   0  0  0  0  0  0  0  0  0  0  0  0
   -8.3868    3.1557  -10.7322 C   0  0  0  0  0  0  0  0  0  0  0  0
   -9.1639    2.3093   -8.4001 C   0  0  0  0  0  0  0  0  0  0  0  0
   -9.5486    1.1948   -8.6797 O   0  0  0  0  0  0  0  0  0  0  0  0
   -9.2442    2.9560   -7.1993 N   0  0  0  0  0  0  0  0  0  0  0  0
   -9.9088    2.4048   -6.0481 C   0  0  0  0  0  0  0  0  0  0  0  0
   -8.8441    4.2533   -7.2952 C   0  0  0  0  0  0  0  0  0  0  0  0
   -8.8608    5.1378   -6.4585 O   0  0  0  0  0  0  0  0  0  0  0  0
   -5.9071    5.1388  -15.8281 C   0  0  0  0  0  0  0  0  0  0  0  0
   -4.5660    5.4815  -15.5285 C   0  0  0  0  0  0  0  0  0  0  0  0
   -3.9621    5.7800  -14.2048 C   0  0  0  0  0  0  0  0  0  0  0  0
   -3.7898    5.4802  -16.6179 N   0  0  0  0  0  0  0  0  0  0  0  0
   -4.6376    5.2146  -17.6565 N   0  0  0  0  0  0  0  0  0  0  0  0
   -4.1501    5.2411  -18.9973 C   0  0  0  0  0  0  0  0  0  0  0  0
   -5.0205    5.2493  -20.0960 C   0  0  0  0  0  0  0  0  0  0  0  0
   -4.5147    5.2824  -21.3989 C   0  0  0  0  0  0  0  0  0  0  0  0
   -3.1392    5.2901  -21.6163 C   0  0  0  0  0  0  0  0  0  0  0  0
   -2.2661    5.2814  -20.5306 C   0  0  0  0  0  0  0  0  0  0  0  0
   -2.7657    5.2700  -19.2259 C   0  0  0  0  0  0  0  0  0  0  0  0
   -5.9248    4.9508  -17.2017 C   0  0  0  0  0  0  0  0  0  0  0  0
   -6.9936    4.5699  -17.9312 N   0  0  0  0  0  0  0  0  0  0  0  0
  1  2  1  0
  2  3  2  0
  3  4  1  0
  4  5  1  0
  5  6  2  0
  5  7  1  0
  7  8  1  0
  8  9  2  0
  9 10  1  0
 10 11  2  0
 11 12  1  0
 12 13  2  0
 12 14  1  0
 14 15  2  0
 14 16  1  0
 16 17  1  0
 16 18  1  0
 18 19  2  0
  4 20  2  0
 20 21  1  0
 21 22  1  0
 21 23  2  0
 23 24  1  0
 24 25  1  0
 25 26  2  0
 26 27  1  0
 27 28  2  0
 28 29  1  0
 29 30  2  0
 24 31  1  0
 31 32  2  0
 32  2  1  0
 13  8  1  0
 31 20  1  0
 18 11  1  0
 30 25  1  0
M  END
>  <name>  (273) 
P116038

>  <alias>  (273) 
None

>  <smina_score_min>  (273) 
-9.679

>  <exports>  (273) 
['/opt/xchem-fragalysis-2/maxwin/BulkDock/OUTPUTS/openbind_xx01zvns2b_c2_elabs_1LOUTNY.sdf', '/opt/xchem-fragalysis-2/maxwin/BulkDock/OUTPUTS/openbind_xx01zvns2b_c2_elabs_1LSYIIV.sdf']

>  <tags>  (273) 
syndirella_placed,openbind_xx01zvns2b_c2_elabs,openbind_xx01zvns2b_c2_elabs_scored_6.2plus,syndirella_product,openbind_xx01zvns2b_c2_elabs_scored,openbind_xx01zvns2b_c2_elabs_scored_top80percent,BulkDock Fragalysis export

>  <subsites>  (273) 
1 - Z4590/B/203/1

>  <smiles>  (273) 
Cc1cc(C(=O)Nc2ccc3c(c2)C(=O)N(C)C3=O)c2c(C)nn(-c3ccccc3)c2n1

>  <HIPPO Pose ID>  (273) 
116038

>  <energy_score>  (273) 
-59.068807

>  <inchikey>  (273) 
VWHZOHDEDFAYQX-UHFFFAOYSA-N

>  <gnina_score_min>  (273) 
6.254

>  <gnina_score>  (273) 
6.229

>  <ref_mols>  (273) 
Z3556a

>  <HIPPO Compound ID>  (273) 
179233

>  <distance_score>  (273) 
0.425408

>  <rmsd(smina/fragmenstein)>  (273) 
0.555

>  <ref_pdb>  (273) 
Z3556a

>  <inspiration_score>  (273) 
None

$$$$
P116039
     RDKit          3D

 32 36  0  0  0  0  0  0  0  0999 V2000
   -9.8340    4.4191   -4.4631 C   0  0  0  0  0  0  0  0  0  0  0  0
   -8.6928    3.5178   -4.8565 C   0  0  0  0  0  0  0  0  0  0  0  0
   -9.0307    2.6253   -6.0677 C   0  0  0  0  0  0  0  0  0  0  0  0
   -9.2002    3.3345   -7.3302 N   0  0  0  0  0  0  0  0  0  0  0  0
   -8.3384    4.5057   -7.4951 C   0  0  0  0  0  0  0  0  0  0  0  0
   -8.2439    4.6733   -8.9650 C   0  0  0  0  0  0  0  0  0  0  0  0
   -7.8707    5.7974   -9.6623 C   0  0  0  0  0  0  0  0  0  0  0  0
   -7.7829    5.6869  -11.0404 C   0  0  0  0  0  0  0  0  0  0  0  0
   -8.0421    4.4663  -11.6925 C   0  0  0  0  0  0  0  0  0  0  0  0
   -7.8570    4.4017  -13.0697 N   0  0  0  0  0  0  0  0  0  0  0  0
   -7.4151    5.4875  -14.0740 C   0  0  0  0  0  0  0  0  0  0  0  0
   -7.2109    6.6266  -13.9165 O   0  0  0  0  0  0  0  0  0  0  0  0
   -7.2297    4.9712  -15.4301 C   0  0  0  0  0  0  0  0  0  0  0  0
   -8.3176    4.5134  -16.1650 C   0  0  0  0  0  0  0  0  0  0  0  0
   -8.1516    4.3135  -17.5278 C   0  0  0  0  0  0  0  0  0  0  0  0
   -9.3253    3.8799  -18.3562 C   0  0  0  0  0  0  0  0  0  0  0  0
   -6.9898    4.5109  -18.1866 N   0  0  0  0  0  0  0  0  0  0  0  0
   -5.9503    4.9136  -17.4246 C   0  0  0  0  0  0  0  0  0  0  0  0
   -5.9879    5.1338  -16.0584 C   0  0  0  0  0  0  0  0  0  0  0  0
   -4.6642    5.4858  -15.7047 C   0  0  0  0  0  0  0  0  0  0  0  0
   -4.1271    5.8090  -14.3586 C   0  0  0  0  0  0  0  0  0  0  0  0
   -3.8422    5.4695  -16.7602 N   0  0  0  0  0  0  0  0  0  0  0  0
   -4.6495    5.1898  -17.8287 N   0  0  0  0  0  0  0  0  0  0  0  0
   -4.1163    5.2352  -19.1504 C   0  0  0  0  0  0  0  0  0  0  0  0
   -2.7257    5.2751  -19.3323 C   0  0  0  0  0  0  0  0  0  0  0  0
   -2.1844    5.3183  -20.6195 C   0  0  0  0  0  0  0  0  0  0  0  0
   -3.0219    5.3495  -21.7326 C   0  0  0  0  0  0  0  0  0  0  0  0
   -4.4037    5.3302  -21.5598 C   0  0  0  0  0  0  0  0  0  0  0  0
   -4.9508    5.2616  -20.2758 C   0  0  0  0  0  0  0  0  0  0  0  0
   -8.4384    3.3360  -10.9664 C   0  0  0  0  0  0  0  0  0  0  0  0
   -8.5539    3.4651   -9.5914 C   0  0  0  0  0  0  0  0  0  0  0  0
   -8.9521    2.4770   -8.5289 C   0  0  0  0  0  0  0  0  0  0  0  0
  1  2  1  0
  2  3  1  0
  3  4  1  0
  4  5  1  0
  5  6  1  0
  6  7  2  0
  7  8  1  0
  8  9  2  0
  9 10  1  0
 10 11  1  0
 11 12  2  0
 11 13  1  0
 13 14  2  0
 14 15  1  0
 15 16  1  0
 15 17  2  0
 17 18  1  0
 18 19  2  0
 19 20  1  0
 20 21  1  0
 20 22  2  0
 22 23  1  0
 23 24  1  0
 24 25  2  0
 25 26  1  0
 26 27  2  0
 27 28  1  0
 28 29  2  0
  9 30  1  0
 30 31  2  0
 31 32  1  0
 32  4  1  0
 31  6  1  0
 19 13  1  0
 29 24  1  0
 23 18  1  0
M  END
>  <name>  (274) 
P116039

>  <alias>  (274) 
None

>  <smina_score_min>  (274) 
-8.832

>  <exports>  (274) 
['/opt/xchem-fragalysis-2/maxwin/BulkDock/OUTPUTS/openbind_xx01zvns2b_c2_elabs_1LOUTNY.sdf', '/opt/xchem-fragalysis-2/maxwin/BulkDock/OUTPUTS/openbind_xx01zvns2b_c2_elabs_1LSYIIV.sdf']

>  <tags>  (274) 
syndirella_placed,openbind_xx01zvns2b_c2_elabs,openbind_xx01zvns2b_c2_elabs_scored_6.2plus,syndirella_product,openbind_xx01zvns2b_c2_elabs_scored,openbind_xx01zvns2b_c2_elabs_scored_top80percent,BulkDock Fragalysis export

>  <subsites>  (274) 
1 - Z4590/B/203/1

>  <smiles>  (274) 
CCCN1Cc2ccc(NC(=O)c3cc(C)nc4c3c(C)nn4-c3ccccc3)cc2C1

>  <HIPPO Pose ID>  (274) 
116039

>  <energy_score>  (274) 
-42.966752

>  <inchikey>  (274) 
LSNWQYYVBZKKDA-UHFFFAOYSA-N

>  <gnina_score_min>  (274) 
6.372

>  <gnina_score>  (274) 
6.289

>  <ref_mols>  (274) 
Z3556a

>  <HIPPO Compound ID>  (274) 
179235

>  <distance_score>  (274) 
0.618989

>  <rmsd(smina/fragmenstein)>  (274) 
0.376

>  <ref_pdb>  (274) 
Z3556a

>  <inspiration_score>  (274) 
None

$$$$
P116040
     RDKit          3D

 32 36  0  0  0  0  0  0  0  0999 V2000
  -10.7646    2.7976   -5.6670 C   0  0  0  0  0  0  0  0  0  0  0  0
   -9.3860    2.3956   -6.1413 C   0  0  0  0  0  0  0  0  0  0  0  0
   -9.0197    3.0716   -7.3574 N   0  0  0  0  0  0  0  0  0  0  0  0
   -8.5362    4.4276   -7.3877 C   0  0  0  0  0  0  0  0  0  0  0  0
   -8.3197    4.6457   -8.8447 C   0  0  0  0  0  0  0  0  0  0  0  0
   -7.9203    5.7837   -9.5075 C   0  0  0  0  0  0  0  0  0  0  0  0
   -7.7897    5.7133  -10.8973 C   0  0  0  0  0  0  0  0  0  0  0  0
   -8.0416    4.5194  -11.6065 C   0  0  0  0  0  0  0  0  0  0  0  0
   -7.8546    4.4813  -12.9868 N   0  0  0  0  0  0  0  0  0  0  0  0
   -7.2983    5.5489  -13.9531 C   0  0  0  0  0  0  0  0  0  0  0  0
   -6.9810    6.6554  -13.7571 O   0  0  0  0  0  0  0  0  0  0  0  0
   -7.1526    5.0462  -15.3279 C   0  0  0  0  0  0  0  0  0  0  0  0
   -8.2557    4.5823  -16.0439 C   0  0  0  0  0  0  0  0  0  0  0  0
   -8.1170    4.3615  -17.4090 C   0  0  0  0  0  0  0  0  0  0  0  0
   -9.2964    3.9056  -18.2194 C   0  0  0  0  0  0  0  0  0  0  0  0
   -6.9688    4.5515  -18.0895 N   0  0  0  0  0  0  0  0  0  0  0  0
   -5.9134    4.9549  -17.3515 C   0  0  0  0  0  0  0  0  0  0  0  0
   -5.9223    5.1909  -15.9864 C   0  0  0  0  0  0  0  0  0  0  0  0
   -4.5850    5.5262  -15.6654 C   0  0  0  0  0  0  0  0  0  0  0  0
   -4.0075    5.8504  -14.3363 C   0  0  0  0  0  0  0  0  0  0  0  0
   -3.7869    5.4915  -16.7384 N   0  0  0  0  0  0  0  0  0  0  0  0
   -4.6190    5.2124  -17.7868 N   0  0  0  0  0  0  0  0  0  0  0  0
   -4.1136    5.2393  -19.1201 C   0  0  0  0  0  0  0  0  0  0  0  0
   -2.7268    5.2686  -19.3315 C   0  0  0  0  0  0  0  0  0  0  0  0
   -2.2121    5.2953  -20.6301 C   0  0  0  0  0  0  0  0  0  0  0  0
   -3.0723    5.3192  -21.7259 C   0  0  0  0  0  0  0  0  0  0  0  0
   -4.4502    5.3093  -21.5244 C   0  0  0  0  0  0  0  0  0  0  0  0
   -4.9710    5.2584  -20.2285 C   0  0  0  0  0  0  0  0  0  0  0  0
   -8.4616    3.3760  -10.9310 C   0  0  0  0  0  0  0  0  0  0  0  0
   -8.5996    3.4790   -9.5581 C   0  0  0  0  0  0  0  0  0  0  0  0
   -9.0796    2.4835   -8.6012 C   0  0  0  0  0  0  0  0  0  0  0  0
   -9.4937    1.3847   -8.8927 O   0  0  0  0  0  0  0  0  0  0  0  0
  1  2  1  0
  2  3  1  0
  3  4  1  0
  4  5  1  0
  5  6  2  0
  6  7  1  0
  7  8  2  0
  8  9  1  0
  9 10  1  0
 10 11  2  0
 10 12  1  0
 12 13  2  0
 13 14  1  0
 14 15  1  0
 14 16  2  0
 16 17  1  0
 17 18  2  0
 18 19  1  0
 19 20  1  0
 19 21  2  0
 21 22  1  0
 22 23  1  0
 23 24  2  0
 24 25  1  0
 25 26  2  0
 26 27  1  0
 27 28  2  0
  8 29  1  0
 29 30  2  0
 30 31  1  0
 31 32  2  0
 31  3  1  0
 30  5  1  0
 18 12  1  0
 28 23  1  0
 22 17  1  0
M  END
>  <name>  (275) 
P116040

>  <alias>  (275) 
None

>  <smina_score_min>  (275) 
-9.492

>  <exports>  (275) 
['/opt/xchem-fragalysis-2/maxwin/BulkDock/OUTPUTS/openbind_xx01zvns2b_c2_elabs_1LOUTNY.sdf', '/opt/xchem-fragalysis-2/maxwin/BulkDock/OUTPUTS/openbind_xx01zvns2b_c2_elabs_1LSYIIV.sdf']

>  <tags>  (275) 
syndirella_placed,openbind_xx01zvns2b_c2_elabs,openbind_xx01zvns2b_c2_elabs_scored_6.2plus,syndirella_product,openbind_xx01zvns2b_c2_elabs_scored,openbind_xx01zvns2b_c2_elabs_scored_top80percent,BulkDock Fragalysis export

>  <subsites>  (275) 
1 - Z4590/B/203/1

>  <smiles>  (275) 
CCN1Cc2ccc(NC(=O)c3cc(C)nc4c3c(C)nn4-c3ccccc3)cc2C1=O

>  <HIPPO Pose ID>  (275) 
116040

>  <energy_score>  (275) 
-60.631056

>  <inchikey>  (275) 
YTQLWQFIACNEKD-UHFFFAOYSA-N

>  <gnina_score_min>  (275) 
6.278

>  <gnina_score>  (275) 
6.317

>  <ref_mols>  (275) 
Z3556a

>  <HIPPO Compound ID>  (275) 
179236

>  <distance_score>  (275) 
0.547312

>  <rmsd(smina/fragmenstein)>  (275) 
0.526

>  <ref_pdb>  (275) 
Z3556a

>  <inspiration_score>  (275) 
None

$$$$
P116041
     RDKit          3D

 32 36  0  0  0  0  0  0  0  0999 V2000
   -9.2749    3.8242  -18.3787 C   0  0  0  0  0  0  0  0  0  0  0  0
   -8.1400    4.2995  -17.5212 C   0  0  0  0  0  0  0  0  0  0  0  0
   -8.3639    4.5547  -16.1775 C   0  0  0  0  0  0  0  0  0  0  0  0
   -7.3225    5.0816  -15.4213 C   0  0  0  0  0  0  0  0  0  0  0  0
   -7.6128    5.6903  -14.1215 C   0  0  0  0  0  0  0  0  0  0  0  0
   -7.5579    6.8530  -14.0571 O   0  0  0  0  0  0  0  0  0  0  0  0
   -8.0015    4.6498  -13.0575 N   0  0  0  0  0  0  0  0  0  0  0  0
   -8.3029    4.8057  -11.7106 C   0  0  0  0  0  0  0  0  0  0  0  0
   -8.4933    6.0973  -11.1832 C   0  0  0  0  0  0  0  0  0  0  0  0
   -8.6226    6.3160   -9.8106 C   0  0  0  0  0  0  0  0  0  0  0  0
   -8.4913    5.2313   -8.9707 C   0  0  0  0  0  0  0  0  0  0  0  0
   -8.3052    3.9481   -9.5124 C   0  0  0  0  0  0  0  0  0  0  0  0
   -8.2814    3.6957  -10.8752 C   0  0  0  0  0  0  0  0  0  0  0  0
   -7.8126    3.0547   -8.4216 C   0  0  0  0  0  0  0  0  0  0  0  0
   -7.2373    4.0270   -7.4142 N   0  0  0  0  0  0  0  0  0  0  0  0
   -5.8646    4.3877   -7.8291 C   0  0  0  0  0  0  0  0  0  0  0  0
   -8.1550    5.2055   -7.4907 C   0  0  0  0  0  0  0  0  0  0  0  0
   -7.5351    6.5265   -6.9839 C   0  0  0  0  0  0  0  0  0  0  0  0
   -9.3595    4.9070   -6.5768 C   0  0  0  0  0  0  0  0  0  0  0  0
   -6.0582    5.2364  -16.0019 C   0  0  0  0  0  0  0  0  0  0  0  0
   -4.7603    5.6415  -15.6161 C   0  0  0  0  0  0  0  0  0  0  0  0
   -4.2952    6.0610  -14.2700 C   0  0  0  0  0  0  0  0  0  0  0  0
   -3.8928    5.5805  -16.6334 N   0  0  0  0  0  0  0  0  0  0  0  0
   -4.6514    5.2415  -17.7207 N   0  0  0  0  0  0  0  0  0  0  0  0
   -4.0757    5.2562  -19.0249 C   0  0  0  0  0  0  0  0  0  0  0  0
   -2.6809    5.3118  -19.1611 C   0  0  0  0  0  0  0  0  0  0  0  0
   -2.0982    5.3266  -20.4304 C   0  0  0  0  0  0  0  0  0  0  0  0
   -2.8984    5.3133  -21.5712 C   0  0  0  0  0  0  0  0  0  0  0  0
   -4.2847    5.2805  -21.4445 C   0  0  0  0  0  0  0  0  0  0  0  0
   -4.8738    5.2417  -20.1778 C   0  0  0  0  0  0  0  0  0  0  0  0
   -5.9590    4.9498  -17.3536 C   0  0  0  0  0  0  0  0  0  0  0  0
   -6.9573    4.4914  -18.1390 N   0  0  0  0  0  0  0  0  0  0  0  0
  1  2  1  0
  2  3  2  0
  3  4  1  0
  4  5  1  0
  5  6  2  0
  5  7  1  0
  7  8  1  0
  8  9  2  0
  9 10  1  0
 10 11  2  0
 11 12  1  0
 12 13  2  0
 12 14  1  0
 14 15  1  0
 15 16  1  0
 15 17  1  0
 17 18  1  0
 17 19  1  0
  4 20  2  0
 20 21  1  0
 21 22  1  0
 21 23  2  0
 23 24  1  0
 24 25  1  0
 25 26  2  0
 26 27  1  0
 27 28  2  0
 28 29  1  0
 29 30  2  0
 24 31  1  0
 31 32  2  0
 32  2  1  0
 13  8  1  0
 31 20  1  0
 17 11  1  0
 30 25  1  0
M  END
>  <name>  (276) 
P116041

>  <alias>  (276) 
None

>  <smina_score_min>  (276) 
-8.741

>  <exports>  (276) 
['/opt/xchem-fragalysis-2/maxwin/BulkDock/OUTPUTS/openbind_xx01zvns2b_c2_elabs_1LOUTNY.sdf', '/opt/xchem-fragalysis-2/maxwin/BulkDock/OUTPUTS/openbind_xx01zvns2b_c2_elabs_1LSYIIV.sdf']

>  <tags>  (276) 
syndirella_placed,openbind_xx01zvns2b_c2_elabs,openbind_xx01zvns2b_c2_elabs_scored_6.2plus,syndirella_product,openbind_xx01zvns2b_c2_elabs_scored,openbind_xx01zvns2b_c2_elabs_scored_top80percent,BulkDock Fragalysis export

>  <subsites>  (276) 
1 - Z4590/B/203/1

>  <smiles>  (276) 
Cc1cc(C(=O)Nc2ccc3c(c2)CN(C)C3(C)C)c2c(C)nn(-c3ccccc3)c2n1

>  <HIPPO Pose ID>  (276) 
116041

>  <energy_score>  (276) 
-42.226886

>  <inchikey>  (276) 
MQUOGMJQZVALHK-UHFFFAOYSA-N

>  <gnina_score_min>  (276) 
6.384

>  <gnina_score>  (276) 
6.302

>  <ref_mols>  (276) 
Z3556a

>  <HIPPO Compound ID>  (276) 
179237

>  <distance_score>  (276) 
0.969067

>  <rmsd(smina/fragmenstein)>  (276) 
0.634

>  <ref_pdb>  (276) 
Z3556a

>  <inspiration_score>  (276) 
None

$$$$
P116042
     RDKit          3D

 32 36  0  0  0  0  0  0  0  0999 V2000
  -10.7148    2.6038   -5.6702 C   0  0  0  0  0  0  0  0  0  0  0  0
   -9.3708    2.2062   -6.2485 C   0  0  0  0  0  0  0  0  0  0  0  0
   -9.0957    2.8704   -7.4921 N   0  0  0  0  0  0  0  0  0  0  0  0
   -8.8144    2.1305   -8.7115 C   0  0  0  0  0  0  0  0  0  0  0  0
   -8.4751    3.2262   -9.6644 C   0  0  0  0  0  0  0  0  0  0  0  0
   -8.2124    3.1764  -11.0223 C   0  0  0  0  0  0  0  0  0  0  0  0
   -7.9120    4.3780  -11.6742 C   0  0  0  0  0  0  0  0  0  0  0  0
   -7.6231    4.3607  -13.0352 N   0  0  0  0  0  0  0  0  0  0  0  0
   -7.3417    5.5178  -14.0136 C   0  0  0  0  0  0  0  0  0  0  0  0
   -7.2317    6.6628  -13.8194 O   0  0  0  0  0  0  0  0  0  0  0  0
   -7.1733    5.0417  -15.3886 C   0  0  0  0  0  0  0  0  0  0  0  0
   -8.2672    4.5733  -16.1117 C   0  0  0  0  0  0  0  0  0  0  0  0
   -8.1120    4.3545  -17.4736 C   0  0  0  0  0  0  0  0  0  0  0  0
   -9.2854    3.8984  -18.2919 C   0  0  0  0  0  0  0  0  0  0  0  0
   -6.9550    4.5467  -18.1403 N   0  0  0  0  0  0  0  0  0  0  0  0
   -5.9108    4.9604  -17.3908 C   0  0  0  0  0  0  0  0  0  0  0  0
   -5.9384    5.2005  -16.0274 C   0  0  0  0  0  0  0  0  0  0  0  0
   -4.6131    5.5564  -15.6882 C   0  0  0  0  0  0  0  0  0  0  0  0
   -4.0689    5.9060  -14.3517 C   0  0  0  0  0  0  0  0  0  0  0  0
   -3.7978    5.5186  -16.7480 N   0  0  0  0  0  0  0  0  0  0  0  0
   -4.6126    5.2272  -17.8082 N   0  0  0  0  0  0  0  0  0  0  0  0
   -4.0899    5.2537  -19.1344 C   0  0  0  0  0  0  0  0  0  0  0  0
   -4.9335    5.2676  -20.2536 C   0  0  0  0  0  0  0  0  0  0  0  0
   -4.3963    5.3196  -21.5426 C   0  0  0  0  0  0  0  0  0  0  0  0
   -3.0159    5.3352  -21.7263 C   0  0  0  0  0  0  0  0  0  0  0  0
   -2.1698    5.3168  -20.6194 C   0  0  0  0  0  0  0  0  0  0  0  0
   -2.7008    5.2894  -19.3276 C   0  0  0  0  0  0  0  0  0  0  0  0
   -7.8788    5.5964  -10.9645 C   0  0  0  0  0  0  0  0  0  0  0  0
   -8.1419    5.6392   -9.5980 C   0  0  0  0  0  0  0  0  0  0  0  0
   -8.4337    4.4431   -8.9834 C   0  0  0  0  0  0  0  0  0  0  0  0
   -8.7752    4.2069   -7.5823 C   0  0  0  0  0  0  0  0  0  0  0  0
   -8.7691    5.0591   -6.7135 O   0  0  0  0  0  0  0  0  0  0  0  0
  1  2  1  0
  2  3  1  0
  3  4  1  0
  4  5  1  0
  5  6  2  0
  6  7  1  0
  7  8  1  0
  8  9  1  0
  9 10  2  0
  9 11  1  0
 11 12  2  0
 12 13  1  0
 13 14  1  0
 13 15  2  0
 15 16  1  0
 16 17  2  0
 17 18  1  0
 18 19  1  0
 18 20  2  0
 20 21  1  0
 21 22  1  0
 22 23  2  0
 23 24  1  0
 24 25  2  0
 25 26  1  0
 26 27  2  0
  7 28  2  0
 28 29  1  0
 29 30  2  0
 30 31  1  0
 31 32  2  0
 31  3  1  0
 30  5  1  0
 17 11  1  0
 27 22  1  0
 21 16  1  0
M  END
>  <name>  (277) 
P116042

>  <alias>  (277) 
None

>  <smina_score_min>  (277) 
-9.618

>  <exports>  (277) 
['/opt/xchem-fragalysis-2/maxwin/BulkDock/OUTPUTS/openbind_xx01zvns2b_c2_elabs_1LOUTNY.sdf', '/opt/xchem-fragalysis-2/maxwin/BulkDock/OUTPUTS/openbind_xx01zvns2b_c2_elabs_1LSYIIV.sdf']

>  <tags>  (277) 
syndirella_placed,openbind_xx01zvns2b_c2_elabs,openbind_xx01zvns2b_c2_elabs_scored_6.2plus,syndirella_product,openbind_xx01zvns2b_c2_elabs_scored,openbind_xx01zvns2b_c2_elabs_scored_top80percent,BulkDock Fragalysis export

>  <subsites>  (277) 
1 - Z4590/B/203/1

>  <smiles>  (277) 
CCN1Cc2cc(NC(=O)c3cc(C)nc4c3c(C)nn4-c3ccccc3)ccc2C1=O

>  <HIPPO Pose ID>  (277) 
116042

>  <energy_score>  (277) 
-22.750304

>  <inchikey>  (277) 
VULIHPWQWJMJCN-UHFFFAOYSA-N

>  <gnina_score_min>  (277) 
6.367

>  <gnina_score>  (277) 
6.313

>  <ref_mols>  (277) 
Z3556a

>  <HIPPO Compound ID>  (277) 
179240

>  <distance_score>  (277) 
0.528969

>  <rmsd(smina/fragmenstein)>  (277) 
0.308

>  <ref_pdb>  (277) 
Z3556a

>  <inspiration_score>  (277) 
None

$$$$
P116043
     RDKit          3D

 32 36  0  0  0  0  0  0  0  0999 V2000
   -4.2082   10.1710  -21.9729 C   0  0  0  0  0  0  0  0  0  0  0  0
   -4.2052    8.9173  -21.1506 C   0  0  0  0  0  0  0  0  0  0  0  0
   -3.2790    8.7504  -20.1150 C   0  0  0  0  0  0  0  0  0  0  0  0
   -3.2459    7.5647  -19.3767 C   0  0  0  0  0  0  0  0  0  0  0  0
   -4.1360    6.5217  -19.6632 C   0  0  0  0  0  0  0  0  0  0  0  0
   -4.0856    5.2247  -18.8933 C   0  0  0  0  0  0  0  0  0  0  0  0
   -4.6174    5.3547  -17.5493 N   0  0  0  0  0  0  0  0  0  0  0  0
   -3.8131    5.7487  -16.5260 N   0  0  0  0  0  0  0  0  0  0  0  0
   -4.6335    5.7209  -15.4697 C   0  0  0  0  0  0  0  0  0  0  0  0
   -5.9294    5.2639  -15.7911 C   0  0  0  0  0  0  0  0  0  0  0  0
   -7.1420    5.0224  -15.1325 C   0  0  0  0  0  0  0  0  0  0  0  0
   -7.2726    5.4655  -13.7308 C   0  0  0  0  0  0  0  0  0  0  0  0
   -6.9434    6.5647  -13.5066 O   0  0  0  0  0  0  0  0  0  0  0  0
   -7.7495    4.3459  -12.7738 N   0  0  0  0  0  0  0  0  0  0  0  0
   -8.0029    4.3735  -11.3991 C   0  0  0  0  0  0  0  0  0  0  0  0
   -7.8002    5.5751  -10.6865 C   0  0  0  0  0  0  0  0  0  0  0  0
   -8.0003    5.6572   -9.3059 C   0  0  0  0  0  0  0  0  0  0  0  0
   -8.4176    4.5211   -8.6487 C   0  0  0  0  0  0  0  0  0  0  0  0
   -8.6324    3.3355   -9.3543 C   0  0  0  0  0  0  0  0  0  0  0  0
   -8.4299    3.2268  -10.7247 C   0  0  0  0  0  0  0  0  0  0  0  0
   -9.1727    2.3567   -8.3987 C   0  0  0  0  0  0  0  0  0  0  0  0
   -9.5726    1.2481   -8.6782 O   0  0  0  0  0  0  0  0  0  0  0  0
   -9.2321    2.9855   -7.1690 N   0  0  0  0  0  0  0  0  0  0  0  0
   -9.9350    2.4529   -6.0319 C   0  0  0  0  0  0  0  0  0  0  0  0
   -8.7453    4.3401   -7.2069 C   0  0  0  0  0  0  0  0  0  0  0  0
   -8.2138    4.5309  -15.8808 C   0  0  0  0  0  0  0  0  0  0  0  0
   -8.0498    4.3584  -17.2595 C   0  0  0  0  0  0  0  0  0  0  0  0
   -9.2074    3.8902  -18.0979 C   0  0  0  0  0  0  0  0  0  0  0  0
   -6.8983    4.6043  -17.9308 N   0  0  0  0  0  0  0  0  0  0  0  0
   -5.8900    5.0373  -17.1538 C   0  0  0  0  0  0  0  0  0  0  0  0
   -5.0635    6.6930  -20.6986 C   0  0  0  0  0  0  0  0  0  0  0  0
   -5.0873    7.8729  -21.4454 C   0  0  0  0  0  0  0  0  0  0  0  0
  1  2  1  0
  2  3  2  0
  3  4  1  0
  4  5  2  0
  5  6  1  0
  6  7  1  0
  7  8  1  0
  8  9  2  0
  9 10  1  0
 10 11  2  0
 11 12  1  0
 12 13  2  0
 12 14  1  0
 14 15  1  0
 15 16  2  0
 16 17  1  0
 17 18  2  0
 18 19  1  0
 19 20  2  0
 19 21  1  0
 21 22  2  0
 21 23  1  0
 23 24  1  0
 23 25  1  0
 11 26  1  0
 26 27  2  0
 27 28  1  0
 27 29  1  0
 29 30  2  0
  5 31  1  0
 31 32  2  0
 32  2  1  0
 30  7  1  0
 30 10  1  0
 20 15  1  0
 25 18  1  0
M  END
>  <name>  (278) 
P116043

>  <alias>  (278) 
None

>  <smina_score_min>  (278) 
-9.023

>  <exports>  (278) 
['/opt/xchem-fragalysis-2/maxwin/BulkDock/OUTPUTS/openbind_xx01zvns2b_c2_elabs_1LOUTNY.sdf', '/opt/xchem-fragalysis-2/maxwin/BulkDock/OUTPUTS/openbind_xx01zvns2b_c2_elabs_1LSYIIV.sdf']

>  <tags>  (278) 
syndirella_placed,openbind_xx01zvns2b_c2_elabs,openbind_xx01zvns2b_c2_elabs_scored_6.2plus,syndirella_product,openbind_xx01zvns2b_c2_elabs_scored,openbind_xx01zvns2b_c2_elabs_scored_top80percent,BulkDock Fragalysis export

>  <subsites>  (278) 
1 - Z4590/B/203/1

>  <smiles>  (278) 
Cc1ccc(Cn2ncc3c(C(=O)Nc4ccc5c(c4)C(=O)N(C)C5)cc(C)nc32)cc1

>  <HIPPO Pose ID>  (278) 
116043

>  <energy_score>  (278) 
-38.680211

>  <inchikey>  (278) 
YSGWDNDSCOECIM-UHFFFAOYSA-N

>  <gnina_score_min>  (278) 
6.205

>  <gnina_score>  (278) 
6.16

>  <ref_mols>  (278) 
Z3556a

>  <HIPPO Compound ID>  (278) 
179242

>  <distance_score>  (278) 
0.463695

>  <rmsd(smina/fragmenstein)>  (278) 
1.036

>  <ref_pdb>  (278) 
Z3556a

>  <inspiration_score>  (278) 
None

$$$$
P116044
     RDKit          3D

 32 36  0  0  0  0  0  0  0  0999 V2000
  -10.8680    1.5619   -5.9015 C   0  0  0  0  0  0  0  0  0  0  0  0
  -10.4425    2.7418   -6.7447 C   0  0  0  0  0  0  0  0  0  0  0  0
   -9.0215    2.7063   -7.0854 N   0  0  0  0  0  0  0  0  0  0  0  0
   -8.4716    4.0708   -7.2290 C   0  0  0  0  0  0  0  0  0  0  0  0
   -8.3818    4.3381   -8.6920 C   0  0  0  0  0  0  0  0  0  0  0  0
   -8.1202    5.5311   -9.3345 C   0  0  0  0  0  0  0  0  0  0  0  0
   -8.0055    5.5147  -10.7238 C   0  0  0  0  0  0  0  0  0  0  0  0
   -8.1367    4.3180  -11.4511 C   0  0  0  0  0  0  0  0  0  0  0  0
   -7.9400    4.3307  -12.8354 N   0  0  0  0  0  0  0  0  0  0  0  0
   -7.4436    5.4602  -13.7697 C   0  0  0  0  0  0  0  0  0  0  0  0
   -7.1951    6.5790  -13.5400 O   0  0  0  0  0  0  0  0  0  0  0  0
   -7.2432    5.0137  -15.1599 C   0  0  0  0  0  0  0  0  0  0  0  0
   -8.2867    4.5118  -15.9392 C   0  0  0  0  0  0  0  0  0  0  0  0
   -8.0807    4.3353  -17.3092 C   0  0  0  0  0  0  0  0  0  0  0  0
   -9.2173    3.8761  -18.1790 C   0  0  0  0  0  0  0  0  0  0  0  0
   -6.9082    4.5749  -17.9422 N   0  0  0  0  0  0  0  0  0  0  0  0
   -5.9287    5.0244  -17.1378 C   0  0  0  0  0  0  0  0  0  0  0  0
   -6.0120    5.2619  -15.7782 C   0  0  0  0  0  0  0  0  0  0  0  0
   -4.7303    5.7314  -15.4215 C   0  0  0  0  0  0  0  0  0  0  0  0
   -3.8777    5.7559  -16.4529 N   0  0  0  0  0  0  0  0  0  0  0  0
   -4.6495    5.3549  -17.4989 N   0  0  0  0  0  0  0  0  0  0  0  0
   -4.0825    5.2330  -18.8298 C   0  0  0  0  0  0  0  0  0  0  0  0
   -4.1400    6.5264  -19.6040 C   0  0  0  0  0  0  0  0  0  0  0  0
   -3.2909    7.5946  -19.2862 C   0  0  0  0  0  0  0  0  0  0  0  0
   -3.3269    8.7768  -20.0298 C   0  0  0  0  0  0  0  0  0  0  0  0
   -4.2002    8.9070  -21.1153 C   0  0  0  0  0  0  0  0  0  0  0  0
   -4.2509   10.1824  -21.9013 C   0  0  0  0  0  0  0  0  0  0  0  0
   -5.0616    7.8488  -21.4222 C   0  0  0  0  0  0  0  0  0  0  0  0
   -5.0359    6.6717  -20.6710 C   0  0  0  0  0  0  0  0  0  0  0  0
   -8.4229    3.1198  -10.7830 C   0  0  0  0  0  0  0  0  0  0  0  0
   -8.5487    3.1504   -9.3976 C   0  0  0  0  0  0  0  0  0  0  0  0
   -8.7982    2.0398   -8.4150 C   0  0  0  0  0  0  0  0  0  0  0  0
  1  2  1  0
  2  3  1  0
  3  4  1  0
  4  5  1  0
  5  6  2  0
  6  7  1  0
  7  8  2  0
  8  9  1  0
  9 10  1  0
 10 11  2  0
 10 12  1  0
 12 13  2  0
 13 14  1  0
 14 15  1  0
 14 16  2  0
 16 17  1  0
 17 18  2  0
 18 19  1  0
 19 20  2  0
 20 21  1  0
 21 22  1  0
 22 23  1  0
 23 24  2  0
 24 25  1  0
 25 26  2  0
 26 27  1  0
 26 28  1  0
 28 29  2  0
  8 30  1  0
 30 31  2  0
 31 32  1  0
 32  3  1  0
 31  5  1  0
 18 12  1  0
 29 23  1  0
 21 17  1  0
M  END
>  <name>  (279) 
P116044

>  <alias>  (279) 
None

>  <smina_score_min>  (279) 
-8.977

>  <exports>  (279) 
['/opt/xchem-fragalysis-2/maxwin/BulkDock/OUTPUTS/openbind_xx01zvns2b_c2_elabs_1LOUTNY.sdf', '/opt/xchem-fragalysis-2/maxwin/BulkDock/OUTPUTS/openbind_xx01zvns2b_c2_elabs_1LSYIIV.sdf']

>  <tags>  (279) 
syndirella_placed,openbind_xx01zvns2b_c2_elabs,openbind_xx01zvns2b_c2_elabs_scored_6.2plus,syndirella_product,openbind_xx01zvns2b_c2_elabs_scored,openbind_xx01zvns2b_c2_elabs_scored_top80percent,BulkDock Fragalysis export

>  <subsites>  (279) 
1 - Z4590/B/203/1

>  <smiles>  (279) 
CCN1Cc2ccc(NC(=O)c3cc(C)nc4c3cnn4Cc3ccc(C)cc3)cc2C1

>  <HIPPO Pose ID>  (279) 
116044

>  <energy_score>  (279) 
-42.567511

>  <inchikey>  (279) 
GCDBDEWVXUHYCI-UHFFFAOYSA-N

>  <gnina_score_min>  (279) 
6.24

>  <gnina_score>  (279) 
6.217

>  <ref_mols>  (279) 
Z3556a

>  <HIPPO Compound ID>  (279) 
179243

>  <distance_score>  (279) 
0.385069

>  <rmsd(smina/fragmenstein)>  (279) 
0.908

>  <ref_pdb>  (279) 
Z3556a

>  <inspiration_score>  (279) 
None

$$$$
P116045
     RDKit          3D

 32 36  0  0  0  0  0  0  0  0999 V2000
   -9.2395    3.7970  -18.3734 C   0  0  0  0  0  0  0  0  0  0  0  0
   -7.9592    4.3428  -17.8123 C   0  0  0  0  0  0  0  0  0  0  0  0
   -7.9070    4.7139  -16.4703 C   0  0  0  0  0  0  0  0  0  0  0  0
   -6.7459    5.3278  -15.9948 C   0  0  0  0  0  0  0  0  0  0  0  0
   -6.6931    5.9748  -14.6738 C   0  0  0  0  0  0  0  0  0  0  0  0
   -6.3095    7.1099  -14.6785 O   0  0  0  0  0  0  0  0  0  0  0  0
   -7.1319    5.1405  -13.5995 N   0  0  0  0  0  0  0  0  0  0  0  0
   -7.1606    5.3610  -12.2269 C   0  0  0  0  0  0  0  0  0  0  0  0
   -6.8664    6.6391  -11.7145 C   0  0  0  0  0  0  0  0  0  0  0  0
   -6.7498    6.8563  -10.3453 C   0  0  0  0  0  0  0  0  0  0  0  0
   -6.9364    5.7770   -9.5118 C   0  0  0  0  0  0  0  0  0  0  0  0
   -7.2846    4.5244  -10.0083 C   0  0  0  0  0  0  0  0  0  0  0  0
   -7.4127    4.2927  -11.3673 C   0  0  0  0  0  0  0  0  0  0  0  0
   -7.3805    3.5584   -8.8743 C   0  0  0  0  0  0  0  0  0  0  0  0
   -7.2529    4.3757   -7.6275 N   0  0  0  0  0  0  0  0  0  0  0  0
   -8.5421    4.5491   -6.9543 C   0  0  0  0  0  0  0  0  0  0  0  0
   -9.1231    3.2354   -6.4305 C   0  0  0  0  0  0  0  0  0  0  0  0
  -10.2400    3.4873   -5.4121 C   0  0  0  0  0  0  0  0  0  0  0  0
   -9.6503    3.8646   -4.0507 C   0  0  0  0  0  0  0  0  0  0  0  0
  -11.1324    2.2521   -5.3288 C   0  0  0  0  0  0  0  0  0  0  0  0
   -6.7364    5.6998   -8.0404 C   0  0  0  0  0  0  0  0  0  0  0  0
   -5.6688    5.5004  -16.8713 C   0  0  0  0  0  0  0  0  0  0  0  0
   -4.3772    6.0648  -16.8547 C   0  0  0  0  0  0  0  0  0  0  0  0
   -3.7671    5.9998  -18.0428 N   0  0  0  0  0  0  0  0  0  0  0  0
   -4.6879    5.3968  -18.8356 N   0  0  0  0  0  0  0  0  0  0  0  0
   -4.4738    5.2394  -20.2641 C   0  0  0  0  0  0  0  0  0  0  0  0
   -3.0208    4.9732  -20.6713 C   0  0  0  0  0  0  0  0  0  0  0  0
   -2.4115    6.3387  -20.9926 C   0  0  0  0  0  0  0  0  0  0  0  0
   -3.5662    7.3364  -21.0377 C   0  0  0  0  0  0  0  0  0  0  0  0
   -4.8359    6.4965  -21.0552 C   0  0  0  0  0  0  0  0  0  0  0  0
   -5.8382    5.0600  -18.1687 C   0  0  0  0  0  0  0  0  0  0  0  0
   -6.9319    4.4744  -18.6848 N   0  0  0  0  0  0  0  0  0  0  0  0
  1  2  1  0
  2  3  2  0
  3  4  1  0
  4  5  1  0
  5  6  2  0
  5  7  1  0
  7  8  1  0
  8  9  2  0
  9 10  1  0
 10 11  2  0
 11 12  1  0
 12 13  2  0
 12 14  1  0
 14 15  1  0
 15 16  1  0
 16 17  1  0
 17 18  1  0
 18 19  1  0
 18 20  1  0
 15 21  1  0
  4 22  2  0
 22 23  1  0
 23 24  2  0
 24 25  1  0
 25 26  1  0
 26 27  1  0
 27 28  1  0
 28 29  1  0
 29 30  1  0
 25 31  1  0
 31 32  2  0
 32  2  1  0
 13  8  1  0
 31 22  1  0
 21 11  1  0
 30 26  1  0
M  END
>  <name>  (280) 
P116045

>  <alias>  (280) 
None

>  <smina_score_min>  (280) 
-7.699

>  <exports>  (280) 
['/opt/xchem-fragalysis-2/maxwin/BulkDock/OUTPUTS/openbind_xx01zvns2b_c2_elabs_1LOUTNY.sdf', '/opt/xchem-fragalysis-2/maxwin/BulkDock/OUTPUTS/openbind_xx01zvns2b_c2_elabs_1LSYIIV.sdf']

>  <tags>  (280) 
syndirella_placed,openbind_xx01zvns2b_c2_elabs,openbind_xx01zvns2b_c2_elabs_scored_6.2plus,syndirella_product,openbind_xx01zvns2b_c2_elabs_scored,openbind_xx01zvns2b_c2_elabs_scored_top80percent,BulkDock Fragalysis export

>  <subsites>  (280) 
1 - Z4590/B/203/1

>  <smiles>  (280) 
Cc1cc(C(=O)Nc2ccc3c(c2)CN(CCC(C)C)C3)c2cnn(C3CCCC3)c2n1

>  <HIPPO Pose ID>  (280) 
116045

>  <energy_score>  (280) 
-54.9215

>  <inchikey>  (280) 
VUDLXUIAKUOPNJ-UHFFFAOYSA-N

>  <gnina_score_min>  (280) 
6.341

>  <gnina_score>  (280) 
6.359

>  <ref_mols>  (280) 
Z3556a

>  <HIPPO Compound ID>  (280) 
179244

>  <distance_score>  (280) 
1.822174

>  <rmsd(smina/fragmenstein)>  (280) 
0.621

>  <ref_pdb>  (280) 
Z3556a

>  <inspiration_score>  (280) 
None

$$$$
P116048
     RDKit          3D

 32 36  0  0  0  0  0  0  0  0999 V2000
   -8.7310    3.9299   -3.9381 C   0  0  0  0  0  0  0  0  0  0  0  0
   -8.1079    3.3164   -5.0522 O   0  0  0  0  0  0  0  0  0  0  0  0
   -9.0613    2.7739   -5.9723 C   0  0  0  0  0  0  0  0  0  0  0  0
   -8.7929    3.3271   -7.2612 N   0  0  0  0  0  0  0  0  0  0  0  0
   -8.6817    4.6606   -7.4819 C   0  0  0  0  0  0  0  0  0  0  0  0
   -8.8025    5.6100   -6.7289 O   0  0  0  0  0  0  0  0  0  0  0  0
   -8.4497    4.8068   -8.9064 C   0  0  0  0  0  0  0  0  0  0  0  0
   -8.1825    5.9525   -9.6130 C   0  0  0  0  0  0  0  0  0  0  0  0
   -8.0182    5.8080  -10.9848 C   0  0  0  0  0  0  0  0  0  0  0  0
   -8.1260    4.5466  -11.6164 C   0  0  0  0  0  0  0  0  0  0  0  0
   -7.9092    4.4803  -12.9915 N   0  0  0  0  0  0  0  0  0  0  0  0
   -7.4095    5.5568  -13.9820 C   0  0  0  0  0  0  0  0  0  0  0  0
   -7.1748    6.6890  -13.8150 O   0  0  0  0  0  0  0  0  0  0  0  0
   -7.2034    5.0405  -15.3396 C   0  0  0  0  0  0  0  0  0  0  0  0
   -8.2541    4.5209  -16.0923 C   0  0  0  0  0  0  0  0  0  0  0  0
   -8.0518    4.3115  -17.4541 C   0  0  0  0  0  0  0  0  0  0  0  0
   -9.1956    3.8423  -18.3070 C   0  0  0  0  0  0  0  0  0  0  0  0
   -6.8819    4.5390  -18.0939 N   0  0  0  0  0  0  0  0  0  0  0  0
   -5.8910    5.0064  -17.3161 C   0  0  0  0  0  0  0  0  0  0  0  0
   -5.9720    5.2710  -15.9621 C   0  0  0  0  0  0  0  0  0  0  0  0
   -4.6966    5.7551  -15.6159 C   0  0  0  0  0  0  0  0  0  0  0  0
   -3.8510    5.7715  -16.6503 N   0  0  0  0  0  0  0  0  0  0  0  0
   -4.6158    5.3474  -17.6938 N   0  0  0  0  0  0  0  0  0  0  0  0
   -4.0130    5.2388  -19.0056 C   0  0  0  0  0  0  0  0  0  0  0  0
   -4.9595    5.2714  -20.2095 C   0  0  0  0  0  0  0  0  0  0  0  0
   -4.0356    5.4962  -21.3985 C   0  0  0  0  0  0  0  0  0  0  0  0
   -2.8602    6.3065  -20.8596 C   0  0  0  0  0  0  0  0  0  0  0  0
   -3.0568    6.3897  -19.3482 C   0  0  0  0  0  0  0  0  0  0  0  0
   -8.4247    3.3979  -10.8722 C   0  0  0  0  0  0  0  0  0  0  0  0
   -8.5775    3.5656   -9.5049 C   0  0  0  0  0  0  0  0  0  0  0  0
   -8.9120    2.6284   -8.4308 C   0  0  0  0  0  0  0  0  0  0  0  0
   -9.3190    1.5012   -8.6170 O   0  0  0  0  0  0  0  0  0  0  0  0
  1  2  1  0
  2  3  1  0
  3  4  1  0
  4  5  1  0
  5  6  2  0
  5  7  1  0
  7  8  2  0
  8  9  1  0
  9 10  2  0
 10 11  1  0
 11 12  1  0
 12 13  2  0
 12 14  1  0
 14 15  2  0
 15 16  1  0
 16 17  1  0
 16 18  2  0
 18 19  1  0
 19 20  2  0
 20 21  1  0
 21 22  2  0
 22 23  1  0
 23 24  1  0
 24 25  1  0
 25 26  1  0
 26 27  1  0
 27 28  1  0
 10 29  1  0
 29 30  2  0
 30 31  1  0
 31 32  2  0
 31  4  1  0
 30  7  1  0
 20 14  1  0
 28 24  1  0
 23 19  1  0
M  END
>  <name>  (281) 
P116048

>  <alias>  (281) 
None

>  <smina_score_min>  (281) 
-8.609

>  <exports>  (281) 
['/opt/xchem-fragalysis-2/maxwin/BulkDock/OUTPUTS/openbind_xx01zvns2b_c2_elabs_1LOUTNY.sdf', '/opt/xchem-fragalysis-2/maxwin/BulkDock/OUTPUTS/openbind_xx01zvns2b_c2_elabs_1LSYIIV.sdf']

>  <tags>  (281) 
syndirella_placed,openbind_xx01zvns2b_c2_elabs,openbind_xx01zvns2b_c2_elabs_scored_6.2plus,syndirella_product,openbind_xx01zvns2b_c2_elabs_scored,openbind_xx01zvns2b_c2_elabs_scored_top80percent,BulkDock Fragalysis export

>  <subsites>  (281) 
1 - Z4590/B/203/1

>  <smiles>  (281) 
COCN1C(=O)c2ccc(NC(=O)c3cc(C)nc4c3cnn4C3CCCC3)cc2C1=O

>  <HIPPO Pose ID>  (281) 
116048

>  <energy_score>  (281) 
-57.341583

>  <inchikey>  (281) 
QHYLYBHXVRYMPS-UHFFFAOYSA-N

>  <gnina_score_min>  (281) 
6.263

>  <gnina_score>  (281) 
6.204

>  <ref_mols>  (281) 
Z3556a

>  <HIPPO Compound ID>  (281) 
179246

>  <distance_score>  (281) 
0.609577

>  <rmsd(smina/fragmenstein)>  (281) 
0.72

>  <ref_pdb>  (281) 
Z3556a

>  <inspiration_score>  (281) 
None

$$$$
P116050
     RDKit          3D

 32 36  0  0  0  0  0  0  0  0999 V2000
   -9.2354    3.8590  -18.3163 C   0  0  0  0  0  0  0  0  0  0  0  0
   -8.0647    4.3155  -17.4937 C   0  0  0  0  0  0  0  0  0  0  0  0
   -8.2343    4.5250  -16.1262 C   0  0  0  0  0  0  0  0  0  0  0  0
   -7.1605    5.0305  -15.3970 C   0  0  0  0  0  0  0  0  0  0  0  0
   -7.3280    5.5476  -14.0361 C   0  0  0  0  0  0  0  0  0  0  0  0
   -7.0731    6.6751  -13.8682 O   0  0  0  0  0  0  0  0  0  0  0  0
   -7.7548    4.4570  -13.0297 N   0  0  0  0  0  0  0  0  0  0  0  0
   -8.0393    4.5432  -11.6698 C   0  0  0  0  0  0  0  0  0  0  0  0
   -7.9647    5.8031  -11.0461 C   0  0  0  0  0  0  0  0  0  0  0  0
   -8.1437    5.9420   -9.6775 C   0  0  0  0  0  0  0  0  0  0  0  0
   -8.3944    4.8000   -8.9533 C   0  0  0  0  0  0  0  0  0  0  0  0
   -8.5132    3.5447   -9.5574 C   0  0  0  0  0  0  0  0  0  0  0  0
   -8.3404    3.3962  -10.9260 C   0  0  0  0  0  0  0  0  0  0  0  0
   -8.8381    2.5323   -8.4978 C   0  0  0  0  0  0  0  0  0  0  0  0
   -8.5579    3.2502   -7.2408 N   0  0  0  0  0  0  0  0  0  0  0  0
   -9.3113    2.8239   -6.0639 C   0  0  0  0  0  0  0  0  0  0  0  0
   -8.8779    3.5170   -4.7525 C   0  0  0  0  0  0  0  0  0  0  0  0
   -7.5550    3.3994   -4.4882 F   0  0  0  0  0  0  0  0  0  0  0  0
   -9.1468    4.8527   -4.8033 F   0  0  0  0  0  0  0  0  0  0  0  0
   -9.5545    3.0610   -3.6778 F   0  0  0  0  0  0  0  0  0  0  0  0
   -8.5819    4.6864   -7.4858 C   0  0  0  0  0  0  0  0  0  0  0  0
   -5.9405    5.2440  -16.0447 C   0  0  0  0  0  0  0  0  0  0  0  0
   -4.6539    5.7263  -15.7318 C   0  0  0  0  0  0  0  0  0  0  0  0
   -3.8407    5.7601  -16.7931 N   0  0  0  0  0  0  0  0  0  0  0  0
   -4.6260    5.3018  -17.8027 N   0  0  0  0  0  0  0  0  0  0  0  0
   -4.1517    5.3069  -19.1764 C   0  0  0  0  0  0  0  0  0  0  0  0
   -2.6824    4.8803  -19.3405 C   0  0  0  0  0  0  0  0  0  0  0  0
   -1.9244    6.1750  -19.5938 C   0  0  0  0  0  0  0  0  0  0  0  0
   -2.8953    6.9745  -20.4450 C   0  0  0  0  0  0  0  0  0  0  0  0
   -4.2520    6.7103  -19.8027 C   0  0  0  0  0  0  0  0  0  0  0  0
   -5.8951    4.9744  -17.3982 C   0  0  0  0  0  0  0  0  0  0  0  0
   -6.9059    4.5269  -18.1642 N   0  0  0  0  0  0  0  0  0  0  0  0
  1  2  1  0
  2  3  2  0
  3  4  1  0
  4  5  1  0
  5  6  2  0
  5  7  1  0
  7  8  1  0
  8  9  2  0
  9 10  1  0
 10 11  2  0
 11 12  1  0
 12 13  2  0
 12 14  1  0
 14 15  1  0
 15 16  1  0
 16 17  1  0
 17 18  1  0
 17 19  1  0
 17 20  1  0
 15 21  1  0
  4 22  2  0
 22 23  1  0
 23 24  2  0
 24 25  1  0
 25 26  1  0
 26 27  1  0
 27 28  1  0
 28 29  1  0
 29 30  1  0
 25 31  1  0
 31 32  2  0
 32  2  1  0
 13  8  1  0
 31 22  1  0
 21 11  1  0
 30 26  1  0
M  END
>  <name>  (282) 
P116050

>  <alias>  (282) 
None

>  <smina_score_min>  (282) 
-8.55

>  <exports>  (282) 
['/opt/xchem-fragalysis-2/maxwin/BulkDock/OUTPUTS/openbind_xx01zvns2b_c2_elabs_1LOUTNY.sdf', '/opt/xchem-fragalysis-2/maxwin/BulkDock/OUTPUTS/openbind_xx01zvns2b_c2_elabs_1LSYIIV.sdf']

>  <tags>  (282) 
syndirella_placed,openbind_xx01zvns2b_c2_elabs,openbind_xx01zvns2b_c2_elabs_scored_6.2plus,syndirella_product,openbind_xx01zvns2b_c2_elabs_scored,openbind_xx01zvns2b_c2_elabs_scored_top80percent,BulkDock Fragalysis export

>  <subsites>  (282) 
1 - Z4590/B/203/1

>  <smiles>  (282) 
Cc1cc(C(=O)Nc2ccc3c(c2)CN(CC(F)(F)F)C3)c2cnn(C3CCCC3)c2n1

>  <HIPPO Pose ID>  (282) 
116050

>  <energy_score>  (282) 
-47.651056

>  <inchikey>  (282) 
JGWQIPKMWJFUQK-UHFFFAOYSA-N

>  <gnina_score_min>  (282) 
6.264

>  <gnina_score>  (282) 
6.275

>  <ref_mols>  (282) 
Z3556a

>  <HIPPO Compound ID>  (282) 
179249

>  <distance_score>  (282) 
0.631464

>  <rmsd(smina/fragmenstein)>  (282) 
0.368

>  <ref_pdb>  (282) 
Z3556a

>  <inspiration_score>  (282) 
None

$$$$
P116051
     RDKit          3D

 32 35  0  0  0  0  0  0  0  0999 V2000
  -10.2332    4.4290  -18.1877 C   0  0  0  0  0  0  0  0  0  0  0  0
   -8.9215    3.7252  -17.9030 C   0  0  0  0  0  0  0  0  0  0  0  0
   -8.3483    3.2272  -19.2151 C   0  0  0  0  0  0  0  0  0  0  0  0
   -7.8953    4.5044  -17.1111 C   0  0  0  0  0  0  0  0  0  0  0  0
   -8.0901    4.7053  -15.7451 C   0  0  0  0  0  0  0  0  0  0  0  0
   -7.0512    5.2594  -14.9943 C   0  0  0  0  0  0  0  0  0  0  0  0
   -7.2352    5.6600  -13.5921 C   0  0  0  0  0  0  0  0  0  0  0  0
   -6.9440    6.7564  -13.3121 O   0  0  0  0  0  0  0  0  0  0  0  0
   -7.8087    4.5199  -12.7169 N   0  0  0  0  0  0  0  0  0  0  0  0
   -8.0457    4.4641  -11.3445 C   0  0  0  0  0  0  0  0  0  0  0  0
   -7.9053    5.6346  -10.5785 C   0  0  0  0  0  0  0  0  0  0  0  0
   -8.0307    5.6059   -9.1935 C   0  0  0  0  0  0  0  0  0  0  0  0
   -8.3108    4.3938   -8.5998 C   0  0  0  0  0  0  0  0  0  0  0  0
   -8.5031    3.2337   -9.3480 C   0  0  0  0  0  0  0  0  0  0  0  0
   -8.3709    3.2482  -10.7300 C   0  0  0  0  0  0  0  0  0  0  0  0
   -8.7708    2.0945   -8.4062 C   0  0  0  0  0  0  0  0  0  0  0  0
   -8.9928    2.7318   -7.0636 N   0  0  0  0  0  0  0  0  0  0  0  0
  -10.4345    2.8246   -6.7572 C   0  0  0  0  0  0  0  0  0  0  0  0
  -10.9885    1.7995   -5.7806 C   0  0  0  0  0  0  0  0  0  0  0  0
  -10.7416    0.5462   -6.1879 F   0  0  0  0  0  0  0  0  0  0  0  0
  -10.5001    2.0114   -4.5484 F   0  0  0  0  0  0  0  0  0  0  0  0
  -12.3362    1.9381   -5.6733 F   0  0  0  0  0  0  0  0  0  0  0  0
   -8.3813    4.0717   -7.1491 C   0  0  0  0  0  0  0  0  0  0  0  0
   -5.8312    5.5240  -15.6291 C   0  0  0  0  0  0  0  0  0  0  0  0
   -4.5460    6.0078  -15.3103 C   0  0  0  0  0  0  0  0  0  0  0  0
   -3.7235    6.0477  -16.3678 N   0  0  0  0  0  0  0  0  0  0  0  0
   -4.4983    5.5907  -17.3824 N   0  0  0  0  0  0  0  0  0  0  0  0
   -3.9976    5.5122  -18.7501 C   0  0  0  0  0  0  0  0  0  0  0  0
   -4.1419    6.8641  -19.4485 C   0  0  0  0  0  0  0  0  0  0  0  0
   -2.5568    5.0078  -18.8332 C   0  0  0  0  0  0  0  0  0  0  0  0
   -5.7735    5.2914  -16.9867 C   0  0  0  0  0  0  0  0  0  0  0  0
   -6.7680    4.8560  -17.7663 N   0  0  0  0  0  0  0  0  0  0  0  0
  1  2  1  0
  2  3  1  0
  2  4  1  0
  4  5  2  0
  5  6  1  0
  6  7  1  0
  7  8  2  0
  7  9  1  0
  9 10  1  0
 10 11  2  0
 11 12  1  0
 12 13  2  0
 13 14  1  0
 14 15  2  0
 14 16  1  0
 16 17  1  0
 17 18  1  0
 18 19  1  0
 19 20  1  0
 19 21  1  0
 19 22  1  0
 17 23  1  0
  6 24  2  0
 24 25  1  0
 25 26  2  0
 26 27  1  0
 27 28  1  0
 28 29  1  0
 28 30  1  0
 27 31  1  0
 31 32  2  0
 32  4  1  0
 15 10  1  0
 31 24  1  0
 23 13  1  0
M  END
>  <name>  (283) 
P116051

>  <alias>  (283) 
None

>  <smina_score_min>  (283) 
-7.527

>  <exports>  (283) 
['/opt/xchem-fragalysis-2/maxwin/BulkDock/OUTPUTS/openbind_xx01zvns2b_c2_elabs_1LOUTNY.sdf', '/opt/xchem-fragalysis-2/maxwin/BulkDock/OUTPUTS/openbind_xx01zvns2b_c2_elabs_1LSYIIV.sdf']

>  <tags>  (283) 
syndirella_placed,openbind_xx01zvns2b_c2_elabs,openbind_xx01zvns2b_c2_elabs_scored_6.2plus,syndirella_product,openbind_xx01zvns2b_c2_elabs_scored,openbind_xx01zvns2b_c2_elabs_scored_top80percent,BulkDock Fragalysis export

>  <subsites>  (283) 
1 - Z4590/B/203/1

>  <smiles>  (283) 
CC(C)c1cc(C(=O)Nc2ccc3c(c2)CN(CC(F)(F)F)C3)c2cnn(C(C)C)c2n1

>  <HIPPO Pose ID>  (283) 
116051

>  <energy_score>  (283) 
-45.689463

>  <inchikey>  (283) 
GZUZRWOUIAZKKG-UHFFFAOYSA-N

>  <gnina_score_min>  (283) 
6.289

>  <gnina_score>  (283) 
5.97

>  <ref_mols>  (283) 
Z3556a

>  <HIPPO Compound ID>  (283) 
179250

>  <distance_score>  (283) 
0.552211

>  <rmsd(smina/fragmenstein)>  (283) 
0.341

>  <ref_pdb>  (283) 
Z3556a

>  <inspiration_score>  (283) 
None

$$$$
P116052
     RDKit          3D

 32 36  0  0  0  0  0  0  0  0999 V2000
  -12.2610    2.0505   -5.2817 C   0  0  0  0  0  0  0  0  0  0  0  0
  -10.8628    1.5573   -5.3671 C   0  0  0  0  0  0  0  0  0  0  0  0
   -9.9228    2.6271   -5.8692 C   0  0  0  0  0  0  0  0  0  0  0  0
   -9.6676    2.3326   -7.3284 C   0  0  0  0  0  0  0  0  0  0  0  0
   -8.3985    2.8889   -7.7305 N   0  0  0  0  0  0  0  0  0  0  0  0
   -8.3830    4.3516   -7.8295 C   0  0  0  0  0  0  0  0  0  0  0  0
   -8.3141    4.6419   -9.2840 C   0  0  0  0  0  0  0  0  0  0  0  0
   -8.3398    5.8545   -9.9327 C   0  0  0  0  0  0  0  0  0  0  0  0
   -8.2079    5.8369  -11.3176 C   0  0  0  0  0  0  0  0  0  0  0  0
   -8.0761    4.6199  -12.0118 C   0  0  0  0  0  0  0  0  0  0  0  0
   -7.8480    4.5979  -13.3694 N   0  0  0  0  0  0  0  0  0  0  0  0
   -7.4834    5.7233  -14.3316 C   0  0  0  0  0  0  0  0  0  0  0  0
   -7.3900    6.8678  -14.1527 O   0  0  0  0  0  0  0  0  0  0  0  0
   -7.1491    5.1777  -15.6370 C   0  0  0  0  0  0  0  0  0  0  0  0
   -8.1312    4.7078  -16.4921 C   0  0  0  0  0  0  0  0  0  0  0  0
   -7.7688    4.4624  -17.8089 C   0  0  0  0  0  0  0  0  0  0  0  0
   -8.8276    3.9451  -18.7405 C   0  0  0  0  0  0  0  0  0  0  0  0
   -6.5317    4.7047  -18.3293 N   0  0  0  0  0  0  0  0  0  0  0  0
   -5.6065    5.0592  -17.4148 C   0  0  0  0  0  0  0  0  0  0  0  0
   -5.8292    5.2533  -16.0643 C   0  0  0  0  0  0  0  0  0  0  0  0
   -4.5699    5.5266  -15.5070 C   0  0  0  0  0  0  0  0  0  0  0  0
   -3.6032    5.5328  -16.4266 N   0  0  0  0  0  0  0  0  0  0  0  0
   -4.2892    5.4221  -17.6053 N   0  0  0  0  0  0  0  0  0  0  0  0
   -3.7748    6.2362  -18.6978 C   0  0  0  0  0  0  0  0  0  0  0  0
   -3.8782    5.7152  -20.0824 C   0  0  0  0  0  0  0  0  0  0  0  0
   -4.9391    5.8489  -20.9530 C   0  0  0  0  0  0  0  0  0  0  0  0
   -4.5822    5.5132  -22.2845 C   0  0  0  0  0  0  0  0  0  0  0  0
   -3.2863    5.0549  -22.3727 C   0  0  0  0  0  0  0  0  0  0  0  0
   -2.5073    5.0442  -20.8547 S   0  0  0  0  0  0  0  0  0  0  0  0
   -8.0816    3.4039  -11.3526 C   0  0  0  0  0  0  0  0  0  0  0  0
   -8.1701    3.4480   -9.9859 C   0  0  0  0  0  0  0  0  0  0  0  0
   -8.0578    2.3133   -9.0446 C   0  0  0  0  0  0  0  0  0  0  0  0
  1  2  1  0
  2  3  1  0
  3  4  1  0
  4  5  1  0
  5  6  1  0
  6  7  1  0
  7  8  2  0
  8  9  1  0
  9 10  2  0
 10 11  1  0
 11 12  1  0
 12 13  2  0
 12 14  1  0
 14 15  2  0
 15 16  1  0
 16 17  1  0
 16 18  2  0
 18 19  1  0
 19 20  2  0
 20 21  1  0
 21 22  2  0
 22 23  1  0
 23 24  1  0
 24 25  1  0
 25 26  2  0
 26 27  1  0
 27 28  2  0
 28 29  1  0
 10 30  1  0
 30 31  2  0
 31 32  1  0
 32  5  1  0
 31  7  1  0
 20 14  1  0
 29 25  1  0
 23 19  1  0
M  END
>  <name>  (284) 
P116052

>  <alias>  (284) 
None

>  <smina_score_min>  (284) 
-8.145

>  <exports>  (284) 
['/opt/xchem-fragalysis-2/maxwin/BulkDock/OUTPUTS/openbind_xx01zvns2b_c2_elabs_1LOUTNY.sdf', '/opt/xchem-fragalysis-2/maxwin/BulkDock/OUTPUTS/openbind_xx01zvns2b_c2_elabs_1LSYIIV.sdf']

>  <tags>  (284) 
syndirella_placed,openbind_xx01zvns2b_c2_elabs,openbind_xx01zvns2b_c2_elabs_scored_6.2plus,syndirella_product,openbind_xx01zvns2b_c2_elabs_scored,openbind_xx01zvns2b_c2_elabs_scored_top80percent,BulkDock Fragalysis export

>  <subsites>  (284) 
1 - Z4590/B/203/1

>  <smiles>  (284) 
CCCCN1Cc2ccc(NC(=O)c3cc(C)nc4c3cnn4Cc3cccs3)cc2C1

>  <HIPPO Pose ID>  (284) 
116052

>  <energy_score>  (284) 
-38.563371

>  <inchikey>  (284) 
UGAXCPMFJGMETP-UHFFFAOYSA-N

>  <gnina_score_min>  (284) 
6.353

>  <gnina_score>  (284) 
6.384

>  <ref_mols>  (284) 
Z3556a

>  <HIPPO Compound ID>  (284) 
179251

>  <distance_score>  (284) 
0.864859

>  <rmsd(smina/fragmenstein)>  (284) 
0.86

>  <ref_pdb>  (284) 
Z3556a

>  <inspiration_score>  (284) 
None

$$$$
P116053
     RDKit          3D

 32 36  0  0  0  0  0  0  0  0999 V2000
   -9.2785    3.8431  -18.2716 C   0  0  0  0  0  0  0  0  0  0  0  0
   -8.1193    4.3030  -17.4354 C   0  0  0  0  0  0  0  0  0  0  0  0
   -8.2905    4.4841  -16.0631 C   0  0  0  0  0  0  0  0  0  0  0  0
   -7.2241    4.9894  -15.3204 C   0  0  0  0  0  0  0  0  0  0  0  0
   -7.4015    5.5047  -13.9589 C   0  0  0  0  0  0  0  0  0  0  0  0
   -7.1877    6.6423  -13.8037 O   0  0  0  0  0  0  0  0  0  0  0  0
   -7.8572    4.4255  -12.9531 N   0  0  0  0  0  0  0  0  0  0  0  0
   -8.0472    4.4958  -11.5756 C   0  0  0  0  0  0  0  0  0  0  0  0
   -7.7859    5.7179  -10.9190 C   0  0  0  0  0  0  0  0  0  0  0  0
   -7.9272    5.8543   -9.5415 C   0  0  0  0  0  0  0  0  0  0  0  0
   -8.3476    4.7514   -8.8377 C   0  0  0  0  0  0  0  0  0  0  0  0
   -8.6274    3.5493   -9.4857 C   0  0  0  0  0  0  0  0  0  0  0  0
   -8.4745    3.3818  -10.8524 C   0  0  0  0  0  0  0  0  0  0  0  0
   -9.1209    2.6154   -8.4672 C   0  0  0  0  0  0  0  0  0  0  0  0
   -9.4391    1.4661   -8.6839 O   0  0  0  0  0  0  0  0  0  0  0  0
   -9.1732    3.3167   -7.2649 N   0  0  0  0  0  0  0  0  0  0  0  0
   -9.4143    2.6701   -5.9838 C   0  0  0  0  0  0  0  0  0  0  0  0
   -9.2248    3.6053   -4.7838 C   0  0  0  0  0  0  0  0  0  0  0  0
  -10.8095    2.0547   -5.9243 C   0  0  0  0  0  0  0  0  0  0  0  0
   -8.5686    4.6214   -7.3780 C   0  0  0  0  0  0  0  0  0  0  0  0
   -6.0063    5.2271  -15.9640 C   0  0  0  0  0  0  0  0  0  0  0  0
   -4.7204    5.7073  -15.6449 C   0  0  0  0  0  0  0  0  0  0  0  0
   -3.9114    5.7676  -16.7078 N   0  0  0  0  0  0  0  0  0  0  0  0
   -4.7123    5.3779  -17.7346 N   0  0  0  0  0  0  0  0  0  0  0  0
   -4.3178    5.4525  -19.1371 C   0  0  0  0  0  0  0  0  0  0  0  0
   -2.9283    5.9612  -19.3698 C   0  0  0  0  0  0  0  0  0  0  0  0
   -1.7478    5.2453  -19.4049 C   0  0  0  0  0  0  0  0  0  0  0  0
   -0.6190    6.0735  -19.6691 C   0  0  0  0  0  0  0  0  0  0  0  0
   -0.9731    7.3928  -19.8333 C   0  0  0  0  0  0  0  0  0  0  0  0
   -2.6591    7.6281  -19.6769 S   0  0  0  0  0  0  0  0  0  0  0  0
   -5.9651    4.9982  -17.3242 C   0  0  0  0  0  0  0  0  0  0  0  0
   -6.9668    4.5511  -18.1007 N   0  0  0  0  0  0  0  0  0  0  0  0
  1  2  1  0
  2  3  2  0
  3  4  1  0
  4  5  1  0
  5  6  2  0
  5  7  1  0
  7  8  1  0
  8  9  2  0
  9 10  1  0
 10 11  2  0
 11 12  1  0
 12 13  2  0
 12 14  1  0
 14 15  2  0
 14 16  1  0
 16 17  1  0
 17 18  1  0
 17 19  1  0
 16 20  1  0
  4 21  2  0
 21 22  1  0
 22 23  2  0
 23 24  1  0
 24 25  1  0
 25 26  1  0
 26 27  2  0
 27 28  1  0
 28 29  2  0
 29 30  1  0
 24 31  1  0
 31 32  2  0
 32  2  1  0
 13  8  1  0
 31 21  1  0
 20 11  1  0
 30 26  1  0
M  END
>  <name>  (285) 
P116053

>  <alias>  (285) 
None

>  <smina_score_min>  (285) 
-8.758

>  <exports>  (285) 
['/opt/xchem-fragalysis-2/maxwin/BulkDock/OUTPUTS/openbind_xx01zvns2b_c2_elabs_1LOUTNY.sdf', '/opt/xchem-fragalysis-2/maxwin/BulkDock/OUTPUTS/openbind_xx01zvns2b_c2_elabs_1LSYIIV.sdf']

>  <tags>  (285) 
syndirella_placed,openbind_xx01zvns2b_c2_elabs,openbind_xx01zvns2b_c2_elabs_scored_6.2plus,syndirella_product,openbind_xx01zvns2b_c2_elabs_scored,openbind_xx01zvns2b_c2_elabs_scored_top80percent,BulkDock Fragalysis export

>  <subsites>  (285) 
1 - Z4590/B/203/1

>  <smiles>  (285) 
Cc1cc(C(=O)Nc2ccc3c(c2)C(=O)N(C(C)C)C3)c2cnn(Cc3cccs3)c2n1

>  <HIPPO Pose ID>  (285) 
116053

>  <energy_score>  (285) 
-65.197298

>  <inchikey>  (285) 
LSDNQHLUTHZHDA-UHFFFAOYSA-N

>  <gnina_score_min>  (285) 
6.253

>  <gnina_score>  (285) 
6.146

>  <ref_mols>  (285) 
Z3556a

>  <HIPPO Compound ID>  (285) 
179252

>  <distance_score>  (285) 
0.610442

>  <rmsd(smina/fragmenstein)>  (285) 
0.903

>  <ref_pdb>  (285) 
Z3556a

>  <inspiration_score>  (285) 
None

$$$$
P116055
     RDKit          3D

 32 36  0  0  0  0  0  0  0  0999 V2000
   -4.2763    5.8821  -14.0721 C   0  0  0  0  0  0  0  0  0  0  0  0
   -4.7536    5.5833  -15.4463 C   0  0  0  0  0  0  0  0  0  0  0  0
   -3.8863    5.5748  -16.4657 N   0  0  0  0  0  0  0  0  0  0  0  0
   -4.6434    5.3080  -17.5731 N   0  0  0  0  0  0  0  0  0  0  0  0
   -4.0445    5.3133  -18.8691 C   0  0  0  0  0  0  0  0  0  0  0  0
   -4.8172    5.3031  -20.0401 C   0  0  0  0  0  0  0  0  0  0  0  0
   -4.2005    5.3130  -21.2949 C   0  0  0  0  0  0  0  0  0  0  0  0
   -2.8116    5.3187  -21.3918 C   0  0  0  0  0  0  0  0  0  0  0  0
   -2.0364    5.3312  -20.2342 C   0  0  0  0  0  0  0  0  0  0  0  0
   -2.6461    5.3398  -18.9776 C   0  0  0  0  0  0  0  0  0  0  0  0
   -5.9684    5.0696  -17.2303 C   0  0  0  0  0  0  0  0  0  0  0  0
   -6.9771    4.7170  -18.0516 N   0  0  0  0  0  0  0  0  0  0  0  0
   -8.1739    4.5109  -17.4692 C   0  0  0  0  0  0  0  0  0  0  0  0
   -9.2531    4.0037  -18.4087 C   0  0  0  0  0  0  0  0  0  0  0  0
  -10.6385    4.6094  -18.3383 C   0  0  0  0  0  0  0  0  0  0  0  0
   -9.3785    2.5199  -18.1975 C   0  0  0  0  0  0  0  0  0  0  0  0
   -8.3886    4.6654  -16.1015 C   0  0  0  0  0  0  0  0  0  0  0  0
   -7.3318    5.0795  -15.2885 C   0  0  0  0  0  0  0  0  0  0  0  0
   -7.5780    5.5000  -13.8996 C   0  0  0  0  0  0  0  0  0  0  0  0
   -7.5519    6.6469  -13.6820 O   0  0  0  0  0  0  0  0  0  0  0  0
   -7.8672    4.3086  -12.9594 N   0  0  0  0  0  0  0  0  0  0  0  0
   -8.0842    4.2732  -11.5788 C   0  0  0  0  0  0  0  0  0  0  0  0
   -8.0629    5.4608  -10.8196 C   0  0  0  0  0  0  0  0  0  0  0  0
   -8.2506    5.4366   -9.4337 C   0  0  0  0  0  0  0  0  0  0  0  0
   -8.4656    4.2084   -8.8438 C   0  0  0  0  0  0  0  0  0  0  0  0
   -8.4947    3.0226   -9.5727 C   0  0  0  0  0  0  0  0  0  0  0  0
   -8.3030    3.0397  -10.9486 C   0  0  0  0  0  0  0  0  0  0  0  0
   -8.7027    1.8724   -8.6430 C   0  0  0  0  0  0  0  0  0  0  0  0
   -8.8894    2.5223   -7.3613 N   0  0  0  0  0  0  0  0  0  0  0  0
   -8.6556    3.8789   -7.4265 C   0  0  0  0  0  0  0  0  0  0  0  0
   -8.5795    4.6631   -6.5000 O   0  0  0  0  0  0  0  0  0  0  0  0
   -6.0643    5.2523  -15.8602 C   0  0  0  0  0  0  0  0  0  0  0  0
  1  2  1  0
  2  3  2  0
  3  4  1  0
  4  5  1  0
  5  6  2  0
  6  7  1  0
  7  8  2  0
  8  9  1  0
  9 10  2  0
  4 11  1  0
 11 12  2  0
 12 13  1  0
 13 14  1  0
 14 15  1  0
 14 16  1  0
 13 17  2  0
 17 18  1  0
 18 19  1  0
 19 20  2  0
 19 21  1  0
 21 22  1  0
 22 23  2  0
 23 24  1  0
 24 25  2  0
 25 26  1  0
 26 27  2  0
 26 28  1  0
 28 29  1  0
 29 30  1  0
 30 31  2  0
 18 32  2  0
 32  2  1  0
 10  5  1  0
 32 11  1  0
 27 22  1  0
 30 25  1  0
M  END
>  <name>  (286) 
P116055

>  <alias>  (286) 
None

>  <smina_score_min>  (286) 
-8.435

>  <exports>  (286) 
['/opt/xchem-fragalysis-2/maxwin/BulkDock/OUTPUTS/openbind_xx01zvns2b_c2_elabs_1LOUTNY.sdf', '/opt/xchem-fragalysis-2/maxwin/BulkDock/OUTPUTS/openbind_xx01zvns2b_c2_elabs_1LSYIIV.sdf']

>  <tags>  (286) 
syndirella_placed,openbind_xx01zvns2b_c2_elabs,openbind_xx01zvns2b_c2_elabs_scored_6.2plus,syndirella_product,openbind_xx01zvns2b_c2_elabs_scored,openbind_xx01zvns2b_c2_elabs_scored_top80percent,BulkDock Fragalysis export

>  <subsites>  (286) 
1 - Z4590/B/203/1

>  <smiles>  (286) 
Cc1nn(-c2ccccc2)c2nc(C(C)C)cc(C(=O)Nc3ccc4c(c3)CNC4=O)c12

>  <HIPPO Pose ID>  (286) 
116055

>  <energy_score>  (286) 
-48.642826

>  <inchikey>  (286) 
XUDSKUIDWBJJIK-UHFFFAOYSA-N

>  <gnina_score_min>  (286) 
6.495

>  <gnina_score>  (286) 
6.474

>  <ref_mols>  (286) 
Z3556a

>  <HIPPO Compound ID>  (286) 
179256

>  <distance_score>  (286) 
0.421675

>  <rmsd(smina/fragmenstein)>  (286) 
0.494

>  <ref_pdb>  (286) 
Z3556a

>  <inspiration_score>  (286) 
None

$$$$
P116056
     RDKit          3D

 32 36  0  0  0  0  0  0  0  0999 V2000
   -3.8177    5.8555  -14.2759 C   0  0  0  0  0  0  0  0  0  0  0  0
   -4.5253    5.5685  -15.5497 C   0  0  0  0  0  0  0  0  0  0  0  0
   -3.8336    5.5085  -16.6894 N   0  0  0  0  0  0  0  0  0  0  0  0
   -4.7611    5.2514  -17.6612 N   0  0  0  0  0  0  0  0  0  0  0  0
   -4.3398    5.2133  -19.0233 C   0  0  0  0  0  0  0  0  0  0  0  0
   -2.9658    5.2205  -19.3201 C   0  0  0  0  0  0  0  0  0  0  0  0
   -2.5254    5.1937  -20.6454 C   0  0  0  0  0  0  0  0  0  0  0  0
   -3.4492    5.1868  -21.6866 C   0  0  0  0  0  0  0  0  0  0  0  0
   -4.8131    5.1893  -21.4014 C   0  0  0  0  0  0  0  0  0  0  0  0
   -5.2591    5.1883  -20.0759 C   0  0  0  0  0  0  0  0  0  0  0  0
   -6.0358    5.0802  -17.1185 C   0  0  0  0  0  0  0  0  0  0  0  0
   -7.1880    4.7448  -17.7568 N   0  0  0  0  0  0  0  0  0  0  0  0
   -8.2629    4.5807  -16.9553 C   0  0  0  0  0  0  0  0  0  0  0  0
   -9.5457    4.0126  -17.5336 C   0  0  0  0  0  0  0  0  0  0  0  0
  -10.3805    4.7621  -18.5263 C   0  0  0  0  0  0  0  0  0  0  0  0
   -9.3170    2.6518  -18.0996 C   0  0  0  0  0  0  0  0  0  0  0  0
   -8.2347    4.8035  -15.5795 C   0  0  0  0  0  0  0  0  0  0  0  0
   -7.0484    5.1891  -14.9688 C   0  0  0  0  0  0  0  0  0  0  0  0
   -7.0573    5.5655  -13.5463 C   0  0  0  0  0  0  0  0  0  0  0  0
   -6.7379    6.6538  -13.2679 O   0  0  0  0  0  0  0  0  0  0  0  0
   -7.5696    4.4112  -12.6529 N   0  0  0  0  0  0  0  0  0  0  0  0
   -7.8749    4.3860  -11.2931 C   0  0  0  0  0  0  0  0  0  0  0  0
   -7.8391    5.5656  -10.5319 C   0  0  0  0  0  0  0  0  0  0  0  0
   -8.1339    5.5482   -9.1665 C   0  0  0  0  0  0  0  0  0  0  0  0
   -8.4530    4.3374   -8.5817 C   0  0  0  0  0  0  0  0  0  0  0  0
   -8.4953    3.1663   -9.3308 C   0  0  0  0  0  0  0  0  0  0  0  0
   -8.2196    3.1711  -10.6917 C   0  0  0  0  0  0  0  0  0  0  0  0
   -8.8476    2.0172   -8.4389 C   0  0  0  0  0  0  0  0  0  0  0  0
   -8.9788    2.5897   -7.0789 N   0  0  0  0  0  0  0  0  0  0  0  0
  -10.1929    2.1888   -6.3987 C   0  0  0  0  0  0  0  0  0  0  0  0
   -8.7875    4.0433   -7.1569 C   0  0  0  0  0  0  0  0  0  0  0  0
   -5.8967    5.2990  -15.7510 C   0  0  0  0  0  0  0  0  0  0  0  0
  1  2  1  0
  2  3  2  0
  3  4  1  0
  4  5  1  0
  5  6  2  0
  6  7  1  0
  7  8  2  0
  8  9  1  0
  9 10  2  0
  4 11  1  0
 11 12  2  0
 12 13  1  0
 13 14  1  0
 14 15  1  0
 14 16  1  0
 13 17  2  0
 17 18  1  0
 18 19  1  0
 19 20  2  0
 19 21  1  0
 21 22  1  0
 22 23  2  0
 23 24  1  0
 24 25  2  0
 25 26  1  0
 26 27  2  0
 26 28  1  0
 28 29  1  0
 29 30  1  0
 29 31  1  0
 18 32  2  0
 32  2  1  0
 10  5  1  0
 32 11  1  0
 27 22  1  0
 31 25  1  0
M  END
>  <name>  (287) 
P116056

>  <alias>  (287) 
None

>  <smina_score_min>  (287) 
-8.146

>  <exports>  (287) 
['/opt/xchem-fragalysis-2/maxwin/BulkDock/OUTPUTS/openbind_xx01zvns2b_c2_elabs_1LOUTNY.sdf', '/opt/xchem-fragalysis-2/maxwin/BulkDock/OUTPUTS/openbind_xx01zvns2b_c2_elabs_1LSYIIV.sdf']

>  <tags>  (287) 
syndirella_placed,openbind_xx01zvns2b_c2_elabs,openbind_xx01zvns2b_c2_elabs_scored_6.2plus,syndirella_product,openbind_xx01zvns2b_c2_elabs_scored,openbind_xx01zvns2b_c2_elabs_scored_top80percent,BulkDock Fragalysis export

>  <subsites>  (287) 
1 - Z4590/B/203/1

>  <smiles>  (287) 
Cc1nn(-c2ccccc2)c2nc(C(C)C)cc(C(=O)Nc3ccc4c(c3)CN(C)C4)c12

>  <HIPPO Pose ID>  (287) 
116056

>  <energy_score>  (287) 
-19.931502

>  <inchikey>  (287) 
LEOVNCSWNQLZNE-UHFFFAOYSA-N

>  <gnina_score_min>  (287) 
6.433

>  <gnina_score>  (287) 
6.431

>  <ref_mols>  (287) 
Z3556a

>  <HIPPO Compound ID>  (287) 
179257

>  <distance_score>  (287) 
0.464805

>  <rmsd(smina/fragmenstein)>  (287) 
0.343

>  <ref_pdb>  (287) 
Z3556a

>  <inspiration_score>  (287) 
None

$$$$
P116062
     RDKit          3D

 32 37  0  0  0  0  0  0  0  0999 V2000
   -3.9954    5.1716  -18.8978 C   0  0  0  0  0  0  0  0  0  0  0  0
   -4.4104    5.2284  -17.5206 N   0  0  0  0  0  0  0  0  0  0  0  0
   -3.5114    5.5621  -16.5676 N   0  0  0  0  0  0  0  0  0  0  0  0
   -4.2432    5.5574  -15.4477 C   0  0  0  0  0  0  0  0  0  0  0  0
   -3.6361    5.8871  -14.0565 C   0  0  0  0  0  0  0  0  0  0  0  0
   -3.4529    4.7682  -13.0615 C   0  0  0  0  0  0  0  0  0  0  0  0
   -2.2542    5.4013  -13.7042 C   0  0  0  0  0  0  0  0  0  0  0  0
   -5.5941    5.2182  -15.6724 C   0  0  0  0  0  0  0  0  0  0  0  0
   -6.7848    5.0743  -14.9610 C   0  0  0  0  0  0  0  0  0  0  0  0
   -6.8991    5.5490  -13.5837 C   0  0  0  0  0  0  0  0  0  0  0  0
   -6.5691    6.6466  -13.3615 O   0  0  0  0  0  0  0  0  0  0  0  0
   -7.5535    4.4951  -12.6647 N   0  0  0  0  0  0  0  0  0  0  0  0
   -7.8411    4.5367  -11.3078 C   0  0  0  0  0  0  0  0  0  0  0  0
   -7.7185    5.7683  -10.6402 C   0  0  0  0  0  0  0  0  0  0  0  0
   -7.9993    5.8789   -9.2894 C   0  0  0  0  0  0  0  0  0  0  0  0
   -8.4085    4.7399   -8.6360 C   0  0  0  0  0  0  0  0  0  0  0  0
   -8.5443    3.5098   -9.2807 C   0  0  0  0  0  0  0  0  0  0  0  0
   -8.2623    3.3864  -10.6310 C   0  0  0  0  0  0  0  0  0  0  0  0
   -8.9967    2.4940   -8.2742 C   0  0  0  0  0  0  0  0  0  0  0  0
   -9.4638    3.3114   -7.1193 N   0  0  0  0  0  0  0  0  0  0  0  0
   -9.2279    2.6829   -5.8176 C   0  0  0  0  0  0  0  0  0  0  0  0
   -9.8192    3.4498   -4.6184 C   0  0  0  0  0  0  0  0  0  0  0  0
   -9.4996    4.7716   -4.6513 F   0  0  0  0  0  0  0  0  0  0  0  0
   -9.3172    3.0027   -3.4405 F   0  0  0  0  0  0  0  0  0  0  0  0
   -8.7578    4.6030   -7.2020 C   0  0  0  0  0  0  0  0  0  0  0  0
   -7.9400    4.6930  -15.6389 C   0  0  0  0  0  0  0  0  0  0  0  0
   -7.8982    4.5300  -17.0186 C   0  0  0  0  0  0  0  0  0  0  0  0
   -9.1930    4.3308  -17.7421 C   0  0  0  0  0  0  0  0  0  0  0  0
   -9.6582    3.0188  -18.2583 C   0  0  0  0  0  0  0  0  0  0  0  0
   -9.1704    4.0529  -19.2112 C   0  0  0  0  0  0  0  0  0  0  0  0
   -6.7615    4.6804  -17.7440 N   0  0  0  0  0  0  0  0  0  0  0  0
   -5.6685    5.0057  -17.0360 C   0  0  0  0  0  0  0  0  0  0  0  0
  1  2  1  0
  2  3  1  0
  3  4  2  0
  4  5  1  0
  5  6  1  0
  6  7  1  0
  4  8  1  0
  8  9  2  0
  9 10  1  0
 10 11  2  0
 10 12  1  0
 12 13  1  0
 13 14  2  0
 14 15  1  0
 15 16  2  0
 16 17  1  0
 17 18  2  0
 17 19  1  0
 19 20  1  0
 20 21  1  0
 21 22  1  0
 22 23  1  0
 22 24  1  0
 20 25  1  0
  9 26  1  0
 26 27  2  0
 27 28  1  0
 28 29  1  0
 29 30  1  0
 27 31  1  0
 31 32  2  0
 32  2  1  0
  7  5  1  0
 32  8  1  0
 18 13  1  0
 30 28  1  0
 25 16  1  0
M  END
>  <name>  (288) 
P116062

>  <alias>  (288) 
None

>  <smina_score_min>  (288) 
-7.34

>  <exports>  (288) 
['/opt/xchem-fragalysis-2/maxwin/BulkDock/OUTPUTS/openbind_xx01zvns2b_c2_elabs_1LOUTNY.sdf', '/opt/xchem-fragalysis-2/maxwin/BulkDock/OUTPUTS/openbind_xx01zvns2b_c2_elabs_1LSYIIV.sdf']

>  <tags>  (288) 
syndirella_placed,openbind_xx01zvns2b_c2_elabs,openbind_xx01zvns2b_c2_elabs_scored_6.2plus,syndirella_product,openbind_xx01zvns2b_c2_elabs_scored,openbind_xx01zvns2b_c2_elabs_scored_top80percent,BulkDock Fragalysis export

>  <subsites>  (288) 
1 - Z4590/B/203/1

>  <smiles>  (288) 
Cn1nc(C2CC2)c2c(C(=O)Nc3ccc4c(c3)CN(CC(F)F)C4)cc(C3CC3)nc21

>  <HIPPO Pose ID>  (288) 
116062

>  <energy_score>  (288) 
-60.838053

>  <inchikey>  (288) 
JWGJAVGVXKVYMD-UHFFFAOYSA-N

>  <gnina_score_min>  (288) 
6.456

>  <gnina_score>  (288) 
6.219

>  <ref_mols>  (288) 
Z3556a

>  <HIPPO Compound ID>  (288) 
179263

>  <distance_score>  (288) 
0.658279

>  <rmsd(smina/fragmenstein)>  (288) 
0.943

>  <ref_pdb>  (288) 
Z3556a

>  <inspiration_score>  (288) 
None

$$$$
P116067
     RDKit          3D

 32 36  0  0  0  0  0  0  0  0999 V2000
   -9.1920    3.8955  -18.2151 C   0  0  0  0  0  0  0  0  0  0  0  0
   -8.0645    4.3536  -17.3333 C   0  0  0  0  0  0  0  0  0  0  0  0
   -8.2899    4.5468  -15.9717 C   0  0  0  0  0  0  0  0  0  0  0  0
   -7.2509    5.0369  -15.1783 C   0  0  0  0  0  0  0  0  0  0  0  0
   -7.5070    5.4945  -13.8038 C   0  0  0  0  0  0  0  0  0  0  0  0
   -7.4627    6.6446  -13.6057 O   0  0  0  0  0  0  0  0  0  0  0  0
   -7.8282    4.3251  -12.8467 N   0  0  0  0  0  0  0  0  0  0  0  0
   -8.0613    4.3177  -11.4703 C   0  0  0  0  0  0  0  0  0  0  0  0
   -8.0293    5.5160  -10.7361 C   0  0  0  0  0  0  0  0  0  0  0  0
   -8.2399    5.5218   -9.3543 C   0  0  0  0  0  0  0  0  0  0  0  0
   -8.4854    4.3162   -8.7253 C   0  0  0  0  0  0  0  0  0  0  0  0
   -8.5230    3.1266   -9.4446 C   0  0  0  0  0  0  0  0  0  0  0  0
   -8.3121    3.1065  -10.8183 C   0  0  0  0  0  0  0  0  0  0  0  0
   -8.8011    1.9898   -8.5112 C   0  0  0  0  0  0  0  0  0  0  0  0
   -8.9249    2.5940   -7.1624 N   0  0  0  0  0  0  0  0  0  0  0  0
  -10.1380    2.2063   -6.4718 C   0  0  0  0  0  0  0  0  0  0  0  0
   -8.7416    4.0466   -7.2798 C   0  0  0  0  0  0  0  0  0  0  0  0
   -5.9983    5.2541  -15.7659 C   0  0  0  0  0  0  0  0  0  0  0  0
   -4.6978    5.6795  -15.3856 C   0  0  0  0  0  0  0  0  0  0  0  0
   -4.2217    6.0652  -14.0337 C   0  0  0  0  0  0  0  0  0  0  0  0
   -3.8449    5.6826  -16.4226 N   0  0  0  0  0  0  0  0  0  0  0  0
   -4.6244    5.3395  -17.4793 N   0  0  0  0  0  0  0  0  0  0  0  0
   -4.0770    5.2549  -18.8252 C   0  0  0  0  0  0  0  0  0  0  0  0
   -3.2210    6.4409  -19.2072 C   0  0  0  0  0  0  0  0  0  0  0  0
   -1.8367    6.2477  -19.3815 C   0  0  0  0  0  0  0  0  0  0  0  0
   -1.0023    7.3087  -19.7373 C   0  0  0  0  0  0  0  0  0  0  0  0
   -1.5346    8.5802  -19.9256 C   0  0  0  0  0  0  0  0  0  0  0  0
   -2.9031    8.7896  -19.7599 C   0  0  0  0  0  0  0  0  0  0  0  0
   -3.7439    7.7285  -19.4046 C   0  0  0  0  0  0  0  0  0  0  0  0
   -5.4293    8.0749  -19.2411 Cl  0  0  0  0  0  0  0  0  0  0  0  0
   -5.9060    5.0161  -17.1258 C   0  0  0  0  0  0  0  0  0  0  0  0
   -6.8796    4.5781  -17.9442 N   0  0  0  0  0  0  0  0  0  0  0  0
  1  2  1  0
  2  3  2  0
  3  4  1  0
  4  5  1  0
  5  6  2  0
  5  7  1  0
  7  8  1  0
  8  9  2  0
  9 10  1  0
 10 11  2  0
 11 12  1  0
 12 13  2  0
 12 14  1  0
 14 15  1  0
 15 16  1  0
 15 17  1  0
  4 18  2  0
 18 19  1  0
 19 20  1  0
 19 21  2  0
 21 22  1  0
 22 23  1  0
 23 24  1  0
 24 25  2  0
 25 26  1  0
 26 27  2  0
 27 28  1  0
 28 29  2  0
 29 30  1  0
 22 31  1  0
 31 32  2  0
 32  2  1  0
 13  8  1  0
 31 18  1  0
 17 11  1  0
 29 24  1  0
M  END
>  <name>  (289) 
P116067

>  <alias>  (289) 
None

>  <smina_score_min>  (289) 
-8.613

>  <exports>  (289) 
['/opt/xchem-fragalysis-2/maxwin/BulkDock/OUTPUTS/openbind_xx01zvns2b_c2_elabs_1LOUTNY.sdf', '/opt/xchem-fragalysis-2/maxwin/BulkDock/OUTPUTS/openbind_xx01zvns2b_c2_elabs_1LSYIIV.sdf']

>  <tags>  (289) 
syndirella_placed,openbind_xx01zvns2b_c2_elabs,openbind_xx01zvns2b_c2_elabs_scored_6.2plus,syndirella_product,openbind_xx01zvns2b_c2_elabs_scored,openbind_xx01zvns2b_c2_elabs_scored_top80percent,BulkDock Fragalysis export

>  <subsites>  (289) 
1 - Z4590/B/203/1

>  <smiles>  (289) 
Cc1cc(C(=O)Nc2ccc3c(c2)CN(C)C3)c2c(C)nn(Cc3ccccc3Cl)c2n1

>  <HIPPO Pose ID>  (289) 
116067

>  <energy_score>  (289) 
-56.626737

>  <inchikey>  (289) 
BALDQTWUULHITB-UHFFFAOYSA-N

>  <gnina_score_min>  (289) 
6.524

>  <gnina_score>  (289) 
6.399

>  <ref_mols>  (289) 
Z3556a

>  <HIPPO Compound ID>  (289) 
179269

>  <distance_score>  (289) 
0.400533

>  <rmsd(smina/fragmenstein)>  (289) 
0.349

>  <ref_pdb>  (289) 
Z3556a

>  <inspiration_score>  (289) 
None

$$$$
P116068
     RDKit          3D

 32 36  0  0  0  0  0  0  0  0999 V2000
   -9.1657    3.8956  -18.2023 C   0  0  0  0  0  0  0  0  0  0  0  0
   -8.0490    4.3635  -17.3112 C   0  0  0  0  0  0  0  0  0  0  0  0
   -8.2867    4.5419  -15.9487 C   0  0  0  0  0  0  0  0  0  0  0  0
   -7.2629    5.0461  -15.1445 C   0  0  0  0  0  0  0  0  0  0  0  0
   -7.5263    5.4811  -13.7621 C   0  0  0  0  0  0  0  0  0  0  0  0
   -7.4069    6.6178  -13.5239 O   0  0  0  0  0  0  0  0  0  0  0  0
   -7.9094    4.3005  -12.8432 N   0  0  0  0  0  0  0  0  0  0  0  0
   -8.1261    4.2576  -11.4642 C   0  0  0  0  0  0  0  0  0  0  0  0
   -8.1050    5.4410  -10.6987 C   0  0  0  0  0  0  0  0  0  0  0  0
   -8.2843    5.4065   -9.3126 C   0  0  0  0  0  0  0  0  0  0  0  0
   -8.4963    4.1734   -8.7317 C   0  0  0  0  0  0  0  0  0  0  0  0
   -8.5293    2.9930   -9.4694 C   0  0  0  0  0  0  0  0  0  0  0  0
   -8.3416    3.0195  -10.8443 C   0  0  0  0  0  0  0  0  0  0  0  0
   -8.7377    1.8358   -8.5501 C   0  0  0  0  0  0  0  0  0  0  0  0
   -8.9228    2.4757   -7.2624 N   0  0  0  0  0  0  0  0  0  0  0  0
   -8.6855    3.8326   -7.3171 C   0  0  0  0  0  0  0  0  0  0  0  0
   -8.6092    4.6095   -6.3843 O   0  0  0  0  0  0  0  0  0  0  0  0
   -6.0112    5.2902  -15.7240 C   0  0  0  0  0  0  0  0  0  0  0  0
   -4.7238    5.7456  -15.3303 C   0  0  0  0  0  0  0  0  0  0  0  0
   -4.2620    6.1340  -13.9737 C   0  0  0  0  0  0  0  0  0  0  0  0
   -3.8707    5.7969  -16.3649 N   0  0  0  0  0  0  0  0  0  0  0  0
   -4.6222    5.3982  -17.4200 N   0  0  0  0  0  0  0  0  0  0  0  0
   -4.0437    5.3502  -18.7552 C   0  0  0  0  0  0  0  0  0  0  0  0
   -4.3779    6.5728  -19.5842 C   0  0  0  0  0  0  0  0  0  0  0  0
   -4.1870    7.8623  -19.0479 C   0  0  0  0  0  0  0  0  0  0  0  0
   -4.4531    9.0080  -19.8015 C   0  0  0  0  0  0  0  0  0  0  0  0
   -4.9021    8.8896  -21.1123 C   0  0  0  0  0  0  0  0  0  0  0  0
   -5.0797    7.6242  -21.6688 C   0  0  0  0  0  0  0  0  0  0  0  0
   -4.8131    6.4742  -20.9155 C   0  0  0  0  0  0  0  0  0  0  0  0
   -5.0012    4.9533  -21.7127 Cl  0  0  0  0  0  0  0  0  0  0  0  0
   -5.9032    5.0575  -17.0846 C   0  0  0  0  0  0  0  0  0  0  0  0
   -6.8643    4.6135  -17.9155 N   0  0  0  0  0  0  0  0  0  0  0  0
  1  2  1  0
  2  3  2  0
  3  4  1  0
  4  5  1  0
  5  6  2  0
  5  7  1  0
  7  8  1  0
  8  9  2  0
  9 10  1  0
 10 11  2  0
 11 12  1  0
 12 13  2  0
 12 14  1  0
 14 15  1  0
 15 16  1  0
 16 17  2  0
  4 18  2  0
 18 19  1  0
 19 20  1  0
 19 21  2  0
 21 22  1  0
 22 23  1  0
 23 24  1  0
 24 25  2  0
 25 26  1  0
 26 27  2  0
 27 28  1  0
 28 29  2  0
 29 30  1  0
 22 31  1  0
 31 32  2  0
 32  2  1  0
 13  8  1  0
 31 18  1  0
 16 11  1  0
 29 24  1  0
M  END
>  <name>  (290) 
P116068

>  <alias>  (290) 
None

>  <smina_score_min>  (290) 
-9.152

>  <exports>  (290) 
['/opt/xchem-fragalysis-2/maxwin/BulkDock/OUTPUTS/openbind_xx01zvns2b_c2_elabs_1LOUTNY.sdf', '/opt/xchem-fragalysis-2/maxwin/BulkDock/OUTPUTS/openbind_xx01zvns2b_c2_elabs_1LSYIIV.sdf']

>  <tags>  (290) 
syndirella_placed,openbind_xx01zvns2b_c2_elabs,openbind_xx01zvns2b_c2_elabs_scored_6.2plus,syndirella_product,openbind_xx01zvns2b_c2_elabs_scored,openbind_xx01zvns2b_c2_elabs_scored_top80percent,BulkDock Fragalysis export

>  <subsites>  (290) 
1 - Z4590/B/203/1

>  <smiles>  (290) 
Cc1cc(C(=O)Nc2ccc3c(c2)CNC3=O)c2c(C)nn(Cc3ccccc3Cl)c2n1

>  <HIPPO Pose ID>  (290) 
116068

>  <energy_score>  (290) 
-40.880808

>  <inchikey>  (290) 
KOPFFJZKAFRQLK-UHFFFAOYSA-N

>  <gnina_score_min>  (290) 
6.601

>  <gnina_score>  (290) 
6.532

>  <ref_mols>  (290) 
Z3556a

>  <HIPPO Compound ID>  (290) 
179270

>  <distance_score>  (290) 
0.376343

>  <rmsd(smina/fragmenstein)>  (290) 
0.547

>  <ref_pdb>  (290) 
Z3556a

>  <inspiration_score>  (290) 
None

$$$$
P116069
     RDKit          3D

 32 36  0  0  0  0  0  0  0  0999 V2000
   -9.2320    3.8893  -18.0922 C   0  0  0  0  0  0  0  0  0  0  0  0
   -8.0988    4.3328  -17.2102 C   0  0  0  0  0  0  0  0  0  0  0  0
   -8.2984    4.4854  -15.8369 C   0  0  0  0  0  0  0  0  0  0  0  0
   -7.2450    4.9518  -15.0459 C   0  0  0  0  0  0  0  0  0  0  0  0
   -7.4643    5.4023  -13.6574 C   0  0  0  0  0  0  0  0  0  0  0  0
   -7.2697    6.5368  -13.4507 O   0  0  0  0  0  0  0  0  0  0  0  0
   -7.9146    4.2697  -12.6998 N   0  0  0  0  0  0  0  0  0  0  0  0
   -8.1203    4.2781  -11.3143 C   0  0  0  0  0  0  0  0  0  0  0  0
   -7.8440    5.4548  -10.5859 C   0  0  0  0  0  0  0  0  0  0  0  0
   -7.9567    5.5031   -9.1927 C   0  0  0  0  0  0  0  0  0  0  0  0
   -8.3693    4.3624   -8.5380 C   0  0  0  0  0  0  0  0  0  0  0  0
   -8.6930    3.2130   -9.2597 C   0  0  0  0  0  0  0  0  0  0  0  0
   -8.5609    3.1326  -10.6418 C   0  0  0  0  0  0  0  0  0  0  0  0
   -9.1573    2.2185   -8.2773 C   0  0  0  0  0  0  0  0  0  0  0  0
   -9.5648    1.0995   -8.4940 O   0  0  0  0  0  0  0  0  0  0  0  0
   -9.0963    2.8056   -7.0283 N   0  0  0  0  0  0  0  0  0  0  0  0
   -8.5224    4.1189   -7.0763 C   0  0  0  0  0  0  0  0  0  0  0  0
   -6.0028    5.1865  -15.6595 C   0  0  0  0  0  0  0  0  0  0  0  0
   -4.6911    5.6009  -15.2983 C   0  0  0  0  0  0  0  0  0  0  0  0
   -4.1765    5.9444  -13.9491 C   0  0  0  0  0  0  0  0  0  0  0  0
   -3.8618    5.6346  -16.3538 N   0  0  0  0  0  0  0  0  0  0  0  0
   -4.6621    5.3148  -17.4010 N   0  0  0  0  0  0  0  0  0  0  0  0
   -4.1365    5.2370  -18.7563 C   0  0  0  0  0  0  0  0  0  0  0  0
   -3.2712    6.4145  -19.1423 C   0  0  0  0  0  0  0  0  0  0  0  0
   -1.8908    6.2065  -19.3302 C   0  0  0  0  0  0  0  0  0  0  0  0
   -1.0485    7.2591  -19.6919 C   0  0  0  0  0  0  0  0  0  0  0  0
   -1.5688    8.5368  -19.8717 C   0  0  0  0  0  0  0  0  0  0  0  0
   -2.9334    8.7607  -19.6924 C   0  0  0  0  0  0  0  0  0  0  0  0
   -3.7821    7.7079  -19.3319 C   0  0  0  0  0  0  0  0  0  0  0  0
   -5.4630    8.0699  -19.1550 Cl  0  0  0  0  0  0  0  0  0  0  0  0
   -5.9383    4.9904  -17.0280 C   0  0  0  0  0  0  0  0  0  0  0  0
   -6.9288    4.5798  -17.8383 N   0  0  0  0  0  0  0  0  0  0  0  0
  1  2  1  0
  2  3  2  0
  3  4  1  0
  4  5  1  0
  5  6  2  0
  5  7  1  0
  7  8  1  0
  8  9  2  0
  9 10  1  0
 10 11  2  0
 11 12  1  0
 12 13  2  0
 12 14  1  0
 14 15  2  0
 14 16  1  0
 16 17  1  0
  4 18  2  0
 18 19  1  0
 19 20  1  0
 19 21  2  0
 21 22  1  0
 22 23  1  0
 23 24  1  0
 24 25  2  0
 25 26  1  0
 26 27  2  0
 27 28  1  0
 28 29  2  0
 29 30  1  0
 22 31  1  0
 31 32  2  0
 32  2  1  0
 13  8  1  0
 31 18  1  0
 17 11  1  0
 29 24  1  0
M  END
>  <name>  (291) 
P116069

>  <alias>  (291) 
None

>  <smina_score_min>  (291) 
-8.381

>  <exports>  (291) 
['/opt/xchem-fragalysis-2/maxwin/BulkDock/OUTPUTS/openbind_xx01zvns2b_c2_elabs_1LOUTNY.sdf', '/opt/xchem-fragalysis-2/maxwin/BulkDock/OUTPUTS/openbind_xx01zvns2b_c2_elabs_1LSYIIV.sdf']

>  <tags>  (291) 
syndirella_placed,openbind_xx01zvns2b_c2_elabs,openbind_xx01zvns2b_c2_elabs_scored_6.2plus,syndirella_product,openbind_xx01zvns2b_c2_elabs_scored,openbind_xx01zvns2b_c2_elabs_scored_top80percent,BulkDock Fragalysis export

>  <subsites>  (291) 
1 - Z4590/B/203/1

>  <smiles>  (291) 
Cc1cc(C(=O)Nc2ccc3c(c2)C(=O)NC3)c2c(C)nn(Cc3ccccc3Cl)c2n1

>  <HIPPO Pose ID>  (291) 
116069

>  <energy_score>  (291) 
-24.594319

>  <inchikey>  (291) 
SVUHCQGHQQFPKH-UHFFFAOYSA-N

>  <gnina_score_min>  (291) 
6.421

>  <gnina_score>  (291) 
6.349

>  <ref_mols>  (291) 
Z3556a

>  <HIPPO Compound ID>  (291) 
179271

>  <distance_score>  (291) 
0.399952

>  <rmsd(smina/fragmenstein)>  (291) 
0.457

>  <ref_pdb>  (291) 
Z3556a

>  <inspiration_score>  (291) 
None

$$$$
P116077
     RDKit          3D

 32 36  0  0  0  0  0  0  0  0999 V2000
   -9.1084    5.7040   -3.8921 C   0  0  0  0  0  0  0  0  0  0  0  0
   -7.9206    4.8722   -4.3243 C   0  0  0  0  0  0  0  0  0  0  0  0
   -8.2800    3.4531   -4.7807 C   0  0  0  0  0  0  0  0  0  0  0  0
   -9.3665    3.1870   -5.8492 C   0  0  0  0  0  0  0  0  0  0  0  0
   -9.2137    3.6828   -7.1979 N   0  0  0  0  0  0  0  0  0  0  0  0
   -8.4701    4.9043   -7.3991 C   0  0  0  0  0  0  0  0  0  0  0  0
   -8.3164    4.9716   -8.8723 C   0  0  0  0  0  0  0  0  0  0  0  0
   -7.9926    6.0805   -9.6152 C   0  0  0  0  0  0  0  0  0  0  0  0
   -7.8294    5.9034  -10.9768 C   0  0  0  0  0  0  0  0  0  0  0  0
   -7.9605    4.6356  -11.5752 C   0  0  0  0  0  0  0  0  0  0  0  0
   -7.6960    4.5487  -12.9436 N   0  0  0  0  0  0  0  0  0  0  0  0
   -7.3578    5.6539  -13.9747 C   0  0  0  0  0  0  0  0  0  0  0  0
   -7.3238    6.8165  -13.8558 O   0  0  0  0  0  0  0  0  0  0  0  0
   -7.0195    5.1352  -15.2975 C   0  0  0  0  0  0  0  0  0  0  0  0
   -8.0352    4.7980  -16.1861 C   0  0  0  0  0  0  0  0  0  0  0  0
   -7.7101    4.5803  -17.5266 C   0  0  0  0  0  0  0  0  0  0  0  0
   -8.7810    4.2141  -18.5162 C   0  0  0  0  0  0  0  0  0  0  0  0
   -9.5117    2.9707  -18.0941 C   0  0  0  0  0  0  0  0  0  0  0  0
   -6.4675    4.7045  -18.0353 N   0  0  0  0  0  0  0  0  0  0  0  0
   -5.5301    5.0214  -17.1301 C   0  0  0  0  0  0  0  0  0  0  0  0
   -5.7080    5.2324  -15.7743 C   0  0  0  0  0  0  0  0  0  0  0  0
   -4.4091    5.5262  -15.3035 C   0  0  0  0  0  0  0  0  0  0  0  0
   -4.0558    5.7993  -13.8136 C   0  0  0  0  0  0  0  0  0  0  0  0
   -4.2142    7.1961  -13.2709 C   0  0  0  0  0  0  0  0  0  0  0  0
   -2.8419    6.6252  -13.4687 C   0  0  0  0  0  0  0  0  0  0  0  0
   -3.4814    5.5018  -16.2692 N   0  0  0  0  0  0  0  0  0  0  0  0
   -4.2033    5.2232  -17.3784 N   0  0  0  0  0  0  0  0  0  0  0  0
   -3.5634    5.1744  -18.6757 C   0  0  0  0  0  0  0  0  0  0  0  0
   -3.2796    6.5602  -19.2277 C   0  0  0  0  0  0  0  0  0  0  0  0
   -8.3068    3.5132  -10.8003 C   0  0  0  0  0  0  0  0  0  0  0  0
   -8.5021    3.7038   -9.4344 C   0  0  0  0  0  0  0  0  0  0  0  0
   -8.9006    2.7618   -8.3171 C   0  0  0  0  0  0  0  0  0  0  0  0
  1  2  1  0
  2  3  1  0
  3  4  1  0
  4  5  1  0
  5  6  1  0
  6  7  1  0
  7  8  2  0
  8  9  1  0
  9 10  2  0
 10 11  1  0
 11 12  1  0
 12 13  2  0
 12 14  1  0
 14 15  2  0
 15 16  1  0
 16 17  1  0
 17 18  1  0
 16 19  2  0
 19 20  1  0
 20 21  2  0
 21 22  1  0
 22 23  1  0
 23 24  1  0
 24 25  1  0
 22 26  2  0
 26 27  1  0
 27 28  1  0
 28 29  1  0
 10 30  1  0
 30 31  2  0
 31 32  1  0
 32  5  1  0
 31  7  1  0
 21 14  1  0
 25 23  1  0
 27 20  1  0
M  END
>  <name>  (292) 
P116077

>  <alias>  (292) 
None

>  <smina_score_min>  (292) 
-7.037

>  <exports>  (292) 
['/opt/xchem-fragalysis-2/maxwin/BulkDock/OUTPUTS/openbind_xx01zvns2b_c2_elabs_1LOUTNY.sdf', '/opt/xchem-fragalysis-2/maxwin/BulkDock/OUTPUTS/openbind_xx01zvns2b_c2_elabs_1LSYIIV.sdf']

>  <tags>  (292) 
syndirella_placed,openbind_xx01zvns2b_c2_elabs,openbind_xx01zvns2b_c2_elabs_scored_6.2plus,syndirella_product,openbind_xx01zvns2b_c2_elabs_scored,openbind_xx01zvns2b_c2_elabs_scored_top80percent,BulkDock Fragalysis export

>  <subsites>  (292) 
1 - Z4590/B/203/1

>  <smiles>  (292) 
CCCCN1Cc2ccc(NC(=O)c3cc(CC)nc4c3c(C3CC3)nn4CC)cc2C1

>  <HIPPO Pose ID>  (292) 
116077

>  <energy_score>  (292) 
-35.462462

>  <inchikey>  (292) 
PMAWCJRVYZRNBW-UHFFFAOYSA-N

>  <gnina_score_min>  (292) 
6.487

>  <gnina_score>  (292) 
6.415

>  <ref_mols>  (292) 
Z3556a

>  <HIPPO Compound ID>  (292) 
179283

>  <distance_score>  (292) 
0.806247

>  <rmsd(smina/fragmenstein)>  (292) 
0.914

>  <ref_pdb>  (292) 
Z3556a

>  <inspiration_score>  (292) 
None

$$$$
P116078
     RDKit          3D

 32 36  0  0  0  0  0  0  0  0999 V2000
   -9.8720    3.5543  -18.0322 C   0  0  0  0  0  0  0  0  0  0  0  0
   -8.6631    4.3284  -18.4635 C   0  0  0  0  0  0  0  0  0  0  0  0
   -7.6231    4.5620  -17.4031 C   0  0  0  0  0  0  0  0  0  0  0  0
   -7.9371    4.7526  -16.0535 C   0  0  0  0  0  0  0  0  0  0  0  0
   -6.9207    5.0856  -15.1557 C   0  0  0  0  0  0  0  0  0  0  0  0
   -7.2608    5.5428  -13.8011 C   0  0  0  0  0  0  0  0  0  0  0  0
   -7.1592    6.6884  -13.5927 O   0  0  0  0  0  0  0  0  0  0  0  0
   -7.6912    4.3863  -12.8647 N   0  0  0  0  0  0  0  0  0  0  0  0
   -7.9850    4.3863  -11.4959 C   0  0  0  0  0  0  0  0  0  0  0  0
   -7.9397    5.5997  -10.7871 C   0  0  0  0  0  0  0  0  0  0  0  0
   -8.1099    5.6348   -9.4050 C   0  0  0  0  0  0  0  0  0  0  0  0
   -8.3523    4.4442   -8.7511 C   0  0  0  0  0  0  0  0  0  0  0  0
   -8.4652    3.2407   -9.4391 C   0  0  0  0  0  0  0  0  0  0  0  0
   -8.2704    3.1906  -10.8181 C   0  0  0  0  0  0  0  0  0  0  0  0
   -8.7440    2.1430   -8.4475 C   0  0  0  0  0  0  0  0  0  0  0  0
   -8.9525    2.8258   -7.1188 N   0  0  0  0  0  0  0  0  0  0  0  0
  -10.3710    2.8124   -6.7291 C   0  0  0  0  0  0  0  0  0  0  0  0
  -10.8151    1.6549   -5.8510 C   0  0  0  0  0  0  0  0  0  0  0  0
  -12.1477    1.7970   -5.5918 F   0  0  0  0  0  0  0  0  0  0  0  0
  -10.6653    0.4920   -6.5172 F   0  0  0  0  0  0  0  0  0  0  0  0
   -8.4597    4.2062   -7.2870 C   0  0  0  0  0  0  0  0  0  0  0  0
   -5.6145    5.2077  -15.6404 C   0  0  0  0  0  0  0  0  0  0  0  0
   -4.3138    5.5057  -15.1765 C   0  0  0  0  0  0  0  0  0  0  0  0
   -3.9499    5.7639  -13.6862 C   0  0  0  0  0  0  0  0  0  0  0  0
   -2.7079    6.5457  -13.3385 C   0  0  0  0  0  0  0  0  0  0  0  0
   -4.0593    7.1653  -13.1433 C   0  0  0  0  0  0  0  0  0  0  0  0
   -3.3939    5.5042  -16.1502 N   0  0  0  0  0  0  0  0  0  0  0  0
   -4.1183    5.2215  -17.2554 N   0  0  0  0  0  0  0  0  0  0  0  0
   -3.4847    5.1700  -18.5563 C   0  0  0  0  0  0  0  0  0  0  0  0
   -3.2302    6.5548  -19.1247 C   0  0  0  0  0  0  0  0  0  0  0  0
   -5.4429    5.0165  -16.9999 C   0  0  0  0  0  0  0  0  0  0  0  0
   -6.3818    4.7112  -17.9055 N   0  0  0  0  0  0  0  0  0  0  0  0
  1  2  1  0
  2  3  1  0
  3  4  2  0
  4  5  1  0
  5  6  1  0
  6  7  2  0
  6  8  1  0
  8  9  1  0
  9 10  2  0
 10 11  1  0
 11 12  2  0
 12 13  1  0
 13 14  2  0
 13 15  1  0
 15 16  1  0
 16 17  1  0
 17 18  1  0
 18 19  1  0
 18 20  1  0
 16 21  1  0
  5 22  2  0
 22 23  1  0
 23 24  1  0
 24 25  1  0
 25 26  1  0
 23 27  2  0
 27 28  1  0
 28 29  1  0
 29 30  1  0
 28 31  1  0
 31 32  2  0
 32  3  1  0
 14  9  1  0
 31 22  1  0
 21 12  1  0
 26 24  1  0
M  END
>  <name>  (293) 
P116078

>  <alias>  (293) 
None

>  <smina_score_min>  (293) 
-7.888

>  <exports>  (293) 
['/opt/xchem-fragalysis-2/maxwin/BulkDock/OUTPUTS/openbind_xx01zvns2b_c2_elabs_1LOUTNY.sdf', '/opt/xchem-fragalysis-2/maxwin/BulkDock/OUTPUTS/openbind_xx01zvns2b_c2_elabs_1LSYIIV.sdf']

>  <tags>  (293) 
syndirella_placed,openbind_xx01zvns2b_c2_elabs,openbind_xx01zvns2b_c2_elabs_scored_6.2plus,syndirella_product,openbind_xx01zvns2b_c2_elabs_scored,openbind_xx01zvns2b_c2_elabs_scored_top80percent,BulkDock Fragalysis export

>  <subsites>  (293) 
1 - Z4590/B/203/1

>  <smiles>  (293) 
CCc1cc(C(=O)Nc2ccc3c(c2)CN(CC(F)F)C3)c2c(C3CC3)nn(CC)c2n1

>  <HIPPO Pose ID>  (293) 
116078

>  <energy_score>  (293) 
-47.531282

>  <inchikey>  (293) 
MBKLFZRCLSQRAI-UHFFFAOYSA-N

>  <gnina_score_min>  (293) 
6.274

>  <gnina_score>  (293) 
6.314

>  <ref_mols>  (293) 
Z3556a

>  <HIPPO Compound ID>  (293) 
179284

>  <distance_score>  (293) 
0.607733

>  <rmsd(smina/fragmenstein)>  (293) 
0.732

>  <ref_pdb>  (293) 
Z3556a

>  <inspiration_score>  (293) 
None

$$$$
P116079
     RDKit          3D

 32 36  0  0  0  0  0  0  0  0999 V2000
  -11.0233    3.7775  -18.1717 C   0  0  0  0  0  0  0  0  0  0  0  0
   -9.5985    3.9507  -18.0124 C   0  0  0  0  0  0  0  0  0  0  0  0
   -8.8775    4.2569  -16.9037 C   0  0  0  0  0  0  0  0  0  0  0  0
   -7.5373    4.5375  -17.2621 C   0  0  0  0  0  0  0  0  0  0  0  0
   -6.5182    4.9793  -16.3641 C   0  0  0  0  0  0  0  0  0  0  0  0
   -6.6939    5.0087  -14.9924 C   0  0  0  0  0  0  0  0  0  0  0  0
   -5.6045    5.3751  -14.1976 C   0  0  0  0  0  0  0  0  0  0  0  0
   -5.8045    5.6173  -12.7570 C   0  0  0  0  0  0  0  0  0  0  0  0
   -5.3628    6.6009  -12.3060 O   0  0  0  0  0  0  0  0  0  0  0  0
   -6.6856    4.5204  -12.1056 N   0  0  0  0  0  0  0  0  0  0  0  0
   -7.2616    4.4573  -10.8412 C   0  0  0  0  0  0  0  0  0  0  0  0
   -7.2826    5.5984  -10.0235 C   0  0  0  0  0  0  0  0  0  0  0  0
   -7.8333    5.5526   -8.7432 C   0  0  0  0  0  0  0  0  0  0  0  0
   -8.3300    4.3458   -8.2938 C   0  0  0  0  0  0  0  0  0  0  0  0
   -8.3362    3.2174   -9.1106 C   0  0  0  0  0  0  0  0  0  0  0  0
   -7.8332    3.2588  -10.4026 C   0  0  0  0  0  0  0  0  0  0  0  0
   -8.9184    2.0656   -8.3534 C   0  0  0  0  0  0  0  0  0  0  0  0
   -9.0795    2.5536   -6.9675 N   0  0  0  0  0  0  0  0  0  0  0  0
  -10.2931    2.1035   -6.3209 C   0  0  0  0  0  0  0  0  0  0  0  0
   -8.8946    4.0075   -6.9539 C   0  0  0  0  0  0  0  0  0  0  0  0
   -4.3896    5.6610  -14.8354 C   0  0  0  0  0  0  0  0  0  0  0  0
   -3.0695    6.0396  -14.5335 C   0  0  0  0  0  0  0  0  0  0  0  0
   -2.2937    6.1860  -15.6223 N   0  0  0  0  0  0  0  0  0  0  0  0
   -3.1422    5.9497  -16.6474 N   0  0  0  0  0  0  0  0  0  0  0  0
   -2.7681    6.1473  -18.0459 C   0  0  0  0  0  0  0  0  0  0  0  0
   -2.1247    7.5196  -18.2627 C   0  0  0  0  0  0  0  0  0  0  0  0
   -1.8676    5.0369  -18.5716 C   0  0  0  0  0  0  0  0  0  0  0  0
   -4.3845    5.6174  -16.2109 C   0  0  0  0  0  0  0  0  0  0  0  0
   -5.4035    5.3347  -16.9976 N   0  0  0  0  0  0  0  0  0  0  0  0
   -7.2824    4.3556  -18.6151 C   0  0  0  0  0  0  0  0  0  0  0  0
   -6.0960    4.6197  -19.4863 C   0  0  0  0  0  0  0  0  0  0  0  0
   -8.6232    3.6720  -19.3367 S   0  0  0  0  0  0  0  0  0  0  0  0
  1  2  1  0
  2  3  2  0
  3  4  1  0
  4  5  1  0
  5  6  2  0
  6  7  1  0
  7  8  1  0
  8  9  2  0
  8 10  1  0
 10 11  1  0
 11 12  2  0
 12 13  1  0
 13 14  2  0
 14 15  1  0
 15 16  2  0
 15 17  1  0
 17 18  1  0
 18 19  1  0
 18 20  1  0
  7 21  2  0
 21 22  1  0
 22 23  2  0
 23 24  1  0
 24 25  1  0
 25 26  1  0
 25 27  1  0
 24 28  1  0
 28 29  2  0
  4 30  2  0
 30 31  1  0
 30 32  1  0
 32  2  1  0
 29  5  1  0
 16 11  1  0
 28 21  1  0
 20 14  1  0
M  END
>  <name>  (294) 
P116079

>  <alias>  (294) 
None

>  <smina_score_min>  (294) 
-7.015

>  <exports>  (294) 
['/opt/xchem-fragalysis-2/maxwin/BulkDock/OUTPUTS/openbind_xx01zvns2b_c2_elabs_1LOUTNY.sdf', '/opt/xchem-fragalysis-2/maxwin/BulkDock/OUTPUTS/openbind_xx01zvns2b_c2_elabs_1LSYIIV.sdf']

>  <tags>  (294) 
syndirella_placed,openbind_xx01zvns2b_c2_elabs,openbind_xx01zvns2b_c2_elabs_scored_6.2plus,syndirella_product,openbind_xx01zvns2b_c2_elabs_scored,openbind_xx01zvns2b_c2_elabs_scored_top80percent,BulkDock Fragalysis export

>  <subsites>  (294) 
1 - Z4590/B/203/1

>  <smiles>  (294) 
Cc1cc(-c2cc(C(=O)Nc3ccc4c(c3)CN(C)C4)c3cnn(C(C)C)c3n2)c(C)s1

>  <HIPPO Pose ID>  (294) 
116079

>  <energy_score>  (294) 
-35.7772

>  <inchikey>  (294) 
ZBLBLNFGHGHDPB-UHFFFAOYSA-N

>  <gnina_score_min>  (294) 
6.295

>  <gnina_score>  (294) 
6.254

>  <ref_mols>  (294) 
Z3556a

>  <HIPPO Compound ID>  (294) 
179287

>  <distance_score>  (294) 
1.615614

>  <rmsd(smina/fragmenstein)>  (294) 
0.927

>  <ref_pdb>  (294) 
Z3556a

>  <inspiration_score>  (294) 
None

$$$$
P116080
     RDKit          3D

 32 37  0  0  0  0  0  0  0  0999 V2000
   -9.3154    3.8970  -18.1780 C   0  0  0  0  0  0  0  0  0  0  0  0
   -8.1541    4.3432  -17.3368 C   0  0  0  0  0  0  0  0  0  0  0  0
   -8.3154    4.5291  -15.9685 C   0  0  0  0  0  0  0  0  0  0  0  0
   -7.2328    4.9922  -15.2207 C   0  0  0  0  0  0  0  0  0  0  0  0
   -7.4237    5.4556  -13.8356 C   0  0  0  0  0  0  0  0  0  0  0  0
   -7.2523    6.5916  -13.6245 O   0  0  0  0  0  0  0  0  0  0  0  0
   -7.8560    4.3146  -12.8874 N   0  0  0  0  0  0  0  0  0  0  0  0
   -8.0688    4.3138  -11.5068 C   0  0  0  0  0  0  0  0  0  0  0  0
   -8.0301    5.5157  -10.7792 C   0  0  0  0  0  0  0  0  0  0  0  0
   -8.2314    5.5284   -9.3958 C   0  0  0  0  0  0  0  0  0  0  0  0
   -8.4749    4.3263   -8.7588 C   0  0  0  0  0  0  0  0  0  0  0  0
   -8.5181    3.1331   -9.4717 C   0  0  0  0  0  0  0  0  0  0  0  0
   -8.3171    3.1063  -10.8467 C   0  0  0  0  0  0  0  0  0  0  0  0
   -8.7949    2.0015   -8.5313 C   0  0  0  0  0  0  0  0  0  0  0  0
   -8.9082    2.6127   -7.1854 N   0  0  0  0  0  0  0  0  0  0  0  0
  -10.1133    2.2243   -6.4812 C   0  0  0  0  0  0  0  0  0  0  0  0
   -8.7282    4.0648   -7.3109 C   0  0  0  0  0  0  0  0  0  0  0  0
   -5.9989    5.1739  -15.8592 C   0  0  0  0  0  0  0  0  0  0  0  0
   -4.6780    5.5232  -15.5264 C   0  0  0  0  0  0  0  0  0  0  0  0
   -4.1863    5.8323  -14.0846 C   0  0  0  0  0  0  0  0  0  0  0  0
   -2.8549    5.2992  -13.6207 C   0  0  0  0  0  0  0  0  0  0  0  0
   -4.1232    4.7120  -13.0764 C   0  0  0  0  0  0  0  0  0  0  0  0
   -3.8521    5.5276  -16.5733 N   0  0  0  0  0  0  0  0  0  0  0  0
   -4.6587    5.2370  -17.6388 N   0  0  0  0  0  0  0  0  0  0  0  0
   -4.1266    5.2574  -18.9627 C   0  0  0  0  0  0  0  0  0  0  0  0
   -2.7359    5.2935  -19.1444 C   0  0  0  0  0  0  0  0  0  0  0  0
   -2.1935    5.2996  -20.4318 C   0  0  0  0  0  0  0  0  0  0  0  0
   -3.0298    5.2955  -21.5464 C   0  0  0  0  0  0  0  0  0  0  0  0
   -4.4117    5.2821  -21.3754 C   0  0  0  0  0  0  0  0  0  0  0  0
   -4.9605    5.2548  -20.0900 C   0  0  0  0  0  0  0  0  0  0  0  0
   -5.9605    4.9620  -17.2293 C   0  0  0  0  0  0  0  0  0  0  0  0
   -6.9970    4.5573  -17.9943 N   0  0  0  0  0  0  0  0  0  0  0  0
  1  2  1  0
  2  3  2  0
  3  4  1  0
  4  5  1  0
  5  6  2  0
  5  7  1  0
  7  8  1  0
  8  9  2  0
  9 10  1  0
 10 11  2  0
 11 12  1  0
 12 13  2  0
 12 14  1  0
 14 15  1  0
 15 16  1  0
 15 17  1  0
  4 18  2  0
 18 19  1  0
 19 20  1  0
 20 21  1  0
 21 22  1  0
 19 23  2  0
 23 24  1  0
 24 25  1  0
 25 26  2  0
 26 27  1  0
 27 28  2  0
 28 29  1  0
 29 30  2  0
 24 31  1  0
 31 32  2  0
 32  2  1  0
 13  8  1  0
 31 18  1  0
 17 11  1  0
 22 20  1  0
 30 25  1  0
M  END
>  <name>  (295) 
P116080

>  <alias>  (295) 
None

>  <smina_score_min>  (295) 
-9.466

>  <exports>  (295) 
['/opt/xchem-fragalysis-2/maxwin/BulkDock/OUTPUTS/openbind_xx01zvns2b_c2_elabs_1LOUTNY.sdf', '/opt/xchem-fragalysis-2/maxwin/BulkDock/OUTPUTS/openbind_xx01zvns2b_c2_elabs_1LSYIIV.sdf']

>  <tags>  (295) 
syndirella_placed,openbind_xx01zvns2b_c2_elabs,openbind_xx01zvns2b_c2_elabs_scored_6.2plus,syndirella_product,openbind_xx01zvns2b_c2_elabs_scored,openbind_xx01zvns2b_c2_elabs_scored_top80percent,BulkDock Fragalysis export

>  <subsites>  (295) 
1 - Z4590/B/203/1

>  <smiles>  (295) 
Cc1cc(C(=O)Nc2ccc3c(c2)CN(C)C3)c2c(C3CC3)nn(-c3ccccc3)c2n1

>  <HIPPO Pose ID>  (295) 
116080

>  <energy_score>  (295) 
-43.278382

>  <inchikey>  (295) 
YXFQETKHEPDUJD-UHFFFAOYSA-N

>  <gnina_score_min>  (295) 
6.556

>  <gnina_score>  (295) 
6.502

>  <ref_mols>  (295) 
Z3556a

>  <HIPPO Compound ID>  (295) 
179288

>  <distance_score>  (295) 
0.368161

>  <rmsd(smina/fragmenstein)>  (295) 
0.411

>  <ref_pdb>  (295) 
Z3556a

>  <inspiration_score>  (295) 
None

$$$$
P116081
     RDKit          3D

 32 37  0  0  0  0  0  0  0  0999 V2000
   -9.3232    3.9085  -18.1824 C   0  0  0  0  0  0  0  0  0  0  0  0
   -8.1616    4.3501  -17.3395 C   0  0  0  0  0  0  0  0  0  0  0  0
   -8.3228    4.5344  -15.9716 C   0  0  0  0  0  0  0  0  0  0  0  0
   -7.2388    4.9884  -15.2192 C   0  0  0  0  0  0  0  0  0  0  0  0
   -7.4399    5.4324  -13.8288 C   0  0  0  0  0  0  0  0  0  0  0  0
   -7.2940    6.5680  -13.6010 O   0  0  0  0  0  0  0  0  0  0  0  0
   -7.8521    4.2693  -12.8992 N   0  0  0  0  0  0  0  0  0  0  0  0
   -8.0716    4.2444  -11.5195 C   0  0  0  0  0  0  0  0  0  0  0  0
   -8.0476    5.4356  -10.7668 C   0  0  0  0  0  0  0  0  0  0  0  0
   -8.2417    5.4174   -9.3818 C   0  0  0  0  0  0  0  0  0  0  0  0
   -8.4677    4.1924   -8.7885 C   0  0  0  0  0  0  0  0  0  0  0  0
   -8.5030    3.0044   -9.5134 C   0  0  0  0  0  0  0  0  0  0  0  0
   -8.3046    3.0152  -10.8873 C   0  0  0  0  0  0  0  0  0  0  0  0
   -8.7258    1.8582   -8.5832 C   0  0  0  0  0  0  0  0  0  0  0  0
   -8.9119    2.5128   -7.3036 N   0  0  0  0  0  0  0  0  0  0  0  0
   -8.6674    3.8678   -7.3714 C   0  0  0  0  0  0  0  0  0  0  0  0
   -8.5909    4.6540   -6.4465 O   0  0  0  0  0  0  0  0  0  0  0  0
   -6.0009    5.1632  -15.8536 C   0  0  0  0  0  0  0  0  0  0  0  0
   -4.6729    5.4909  -15.5210 C   0  0  0  0  0  0  0  0  0  0  0  0
   -4.1663    5.7626  -14.0747 C   0  0  0  0  0  0  0  0  0  0  0  0
   -2.8782    6.5164  -13.8566 C   0  0  0  0  0  0  0  0  0  0  0  0
   -4.1901    7.1759  -13.5524 C   0  0  0  0  0  0  0  0  0  0  0  0
   -3.8464    5.4657  -16.5680 N   0  0  0  0  0  0  0  0  0  0  0  0
   -4.6613    5.2182  -17.6357 N   0  0  0  0  0  0  0  0  0  0  0  0
   -4.1332    5.2509  -18.9608 C   0  0  0  0  0  0  0  0  0  0  0  0
   -2.7428    5.2684  -19.1471 C   0  0  0  0  0  0  0  0  0  0  0  0
   -2.2051    5.2875  -20.4364 C   0  0  0  0  0  0  0  0  0  0  0  0
   -3.0453    5.3151  -21.5478 C   0  0  0  0  0  0  0  0  0  0  0  0
   -4.4267    5.3206  -21.3720 C   0  0  0  0  0  0  0  0  0  0  0  0
   -4.9710    5.2806  -20.0850 C   0  0  0  0  0  0  0  0  0  0  0  0
   -5.9649    4.9553  -17.2257 C   0  0  0  0  0  0  0  0  0  0  0  0
   -7.0026    4.5589  -17.9936 N   0  0  0  0  0  0  0  0  0  0  0  0
  1  2  1  0
  2  3  2  0
  3  4  1  0
  4  5  1  0
  5  6  2  0
  5  7  1  0
  7  8  1  0
  8  9  2  0
  9 10  1  0
 10 11  2  0
 11 12  1  0
 12 13  2  0
 12 14  1  0
 14 15  1  0
 15 16  1  0
 16 17  2  0
  4 18  2  0
 18 19  1  0
 19 20  1  0
 20 21  1  0
 21 22  1  0
 19 23  2  0
 23 24  1  0
 24 25  1  0
 25 26  2  0
 26 27  1  0
 27 28  2  0
 28 29  1  0
 29 30  2  0
 24 31  1  0
 31 32  2  0
 32  2  1  0
 13  8  1  0
 31 18  1  0
 16 11  1  0
 22 20  1  0
 30 25  1  0
M  END
>  <name>  (296) 
P116081

>  <alias>  (296) 
None

>  <smina_score_min>  (296) 
-9.341

>  <exports>  (296) 
['/opt/xchem-fragalysis-2/maxwin/BulkDock/OUTPUTS/openbind_xx01zvns2b_c2_elabs_1LOUTNY.sdf', '/opt/xchem-fragalysis-2/maxwin/BulkDock/OUTPUTS/openbind_xx01zvns2b_c2_elabs_1LSYIIV.sdf']

>  <tags>  (296) 
syndirella_placed,openbind_xx01zvns2b_c2_elabs,openbind_xx01zvns2b_c2_elabs_scored_6.2plus,syndirella_product,openbind_xx01zvns2b_c2_elabs_scored,openbind_xx01zvns2b_c2_elabs_scored_top80percent,BulkDock Fragalysis export

>  <subsites>  (296) 
1 - Z4590/B/203/1

>  <smiles>  (296) 
Cc1cc(C(=O)Nc2ccc3c(c2)CNC3=O)c2c(C3CC3)nn(-c3ccccc3)c2n1

>  <HIPPO Pose ID>  (296) 
116081

>  <energy_score>  (296) 
-56.688109

>  <inchikey>  (296) 
AKVWDMLZJUASRH-UHFFFAOYSA-N

>  <gnina_score_min>  (296) 
6.415

>  <gnina_score>  (296) 
6.403

>  <ref_mols>  (296) 
Z3556a

>  <HIPPO Compound ID>  (296) 
179289

>  <distance_score>  (296) 
0.347638

>  <rmsd(smina/fragmenstein)>  (296) 
0.601

>  <ref_pdb>  (296) 
Z3556a

>  <inspiration_score>  (296) 
None

$$$$
P116082
     RDKit          3D

 32 36  0  0  0  0  0  0  0  0999 V2000
   -9.7410    4.6236  -18.7854 C   0  0  0  0  0  0  0  0  0  0  0  0
   -8.8766    3.5330  -18.2320 C   0  0  0  0  0  0  0  0  0  0  0  0
   -7.8308    4.1451  -17.3410 C   0  0  0  0  0  0  0  0  0  0  0  0
   -8.1265    4.4498  -16.0173 C   0  0  0  0  0  0  0  0  0  0  0  0
   -7.1379    5.0618  -15.2496 C   0  0  0  0  0  0  0  0  0  0  0  0
   -7.4524    5.6037  -13.9274 C   0  0  0  0  0  0  0  0  0  0  0  0
   -7.3972    6.7620  -13.7965 O   0  0  0  0  0  0  0  0  0  0  0  0
   -7.7876    4.4965  -12.9064 N   0  0  0  0  0  0  0  0  0  0  0  0
   -8.0236    4.5712  -11.5384 C   0  0  0  0  0  0  0  0  0  0  0  0
   -7.8367    5.8058  -10.8818 C   0  0  0  0  0  0  0  0  0  0  0  0
   -8.0019    5.9316   -9.5055 C   0  0  0  0  0  0  0  0  0  0  0  0
   -8.3808    4.8086   -8.8083 C   0  0  0  0  0  0  0  0  0  0  0  0
   -8.6028    3.5986   -9.4633 C   0  0  0  0  0  0  0  0  0  0  0  0
   -8.4132    3.4379  -10.8246 C   0  0  0  0  0  0  0  0  0  0  0  0
   -9.0853    2.6436   -8.4615 C   0  0  0  0  0  0  0  0  0  0  0  0
   -9.3819    1.4939   -8.7024 O   0  0  0  0  0  0  0  0  0  0  0  0
   -9.1598    3.3297   -7.2533 N   0  0  0  0  0  0  0  0  0  0  0  0
   -9.4094    2.6670   -5.9818 C   0  0  0  0  0  0  0  0  0  0  0  0
  -10.8082    2.0599   -5.9366 C   0  0  0  0  0  0  0  0  0  0  0  0
   -9.2153    3.5849   -4.7693 C   0  0  0  0  0  0  0  0  0  0  0  0
   -8.6131    4.6607   -7.3514 C   0  0  0  0  0  0  0  0  0  0  0  0
   -5.8763    5.2977  -15.8113 C   0  0  0  0  0  0  0  0  0  0  0  0
   -4.6080    5.8020  -15.4424 C   0  0  0  0  0  0  0  0  0  0  0  0
   -4.2247    6.2705  -14.0087 C   0  0  0  0  0  0  0  0  0  0  0  0
   -3.0208    7.1548  -13.7990 C   0  0  0  0  0  0  0  0  0  0  0  0
   -4.4000    7.7242  -13.6509 C   0  0  0  0  0  0  0  0  0  0  0  0
   -3.7294    5.7978  -16.4524 N   0  0  0  0  0  0  0  0  0  0  0  0
   -4.4556    5.3268  -17.4894 N   0  0  0  0  0  0  0  0  0  0  0  0
   -3.8641    5.2402  -18.8073 C   0  0  0  0  0  0  0  0  0  0  0  0
   -3.7610    6.5975  -19.4808 C   0  0  0  0  0  0  0  0  0  0  0  0
   -5.7309    4.9744  -17.1480 C   0  0  0  0  0  0  0  0  0  0  0  0
   -6.6572    4.4321  -17.9543 N   0  0  0  0  0  0  0  0  0  0  0  0
  1  2  1  0
  2  3  1  0
  3  4  2  0
  4  5  1  0
  5  6  1  0
  6  7  2  0
  6  8  1  0
  8  9  1  0
  9 10  2  0
 10 11  1  0
 11 12  2  0
 12 13  1  0
 13 14  2  0
 13 15  1  0
 15 16  2  0
 15 17  1  0
 17 18  1  0
 18 19  1  0
 18 20  1  0
 17 21  1  0
  5 22  2  0
 22 23  1  0
 23 24  1  0
 24 25  1  0
 25 26  1  0
 23 27  2  0
 27 28  1  0
 28 29  1  0
 29 30  1  0
 28 31  1  0
 31 32  2  0
 32  3  1  0
 14  9  1  0
 31 22  1  0
 21 12  1  0
 26 24  1  0
M  END
>  <name>  (297) 
P116082

>  <alias>  (297) 
None

>  <smina_score_min>  (297) 
-7.683

>  <exports>  (297) 
['/opt/xchem-fragalysis-2/maxwin/BulkDock/OUTPUTS/openbind_xx01zvns2b_c2_elabs_1LOUTNY.sdf', '/opt/xchem-fragalysis-2/maxwin/BulkDock/OUTPUTS/openbind_xx01zvns2b_c2_elabs_1LSYIIV.sdf']

>  <tags>  (297) 
syndirella_placed,openbind_xx01zvns2b_c2_elabs,openbind_xx01zvns2b_c2_elabs_scored_6.2plus,syndirella_product,openbind_xx01zvns2b_c2_elabs_scored,openbind_xx01zvns2b_c2_elabs_scored_top80percent,BulkDock Fragalysis export

>  <subsites>  (297) 
1 - Z4590/B/203/1

>  <smiles>  (297) 
CCc1cc(C(=O)Nc2ccc3c(c2)C(=O)N(C(C)C)C3)c2c(C3CC3)nn(CC)c2n1

>  <HIPPO Pose ID>  (297) 
116082

>  <energy_score>  (297) 
-47.817154

>  <inchikey>  (297) 
UIXQLICWAGGGAQ-UHFFFAOYSA-N

>  <gnina_score_min>  (297) 
6.212

>  <gnina_score>  (297) 
6.249

>  <ref_mols>  (297) 
Z3556a

>  <HIPPO Compound ID>  (297) 
179290

>  <distance_score>  (297) 
0.666759

>  <rmsd(smina/fragmenstein)>  (297) 
0.716

>  <ref_pdb>  (297) 
Z3556a

>  <inspiration_score>  (297) 
None

$$$$
P116083
     RDKit          3D

 32 36  0  0  0  0  0  0  0  0999 V2000
   -9.5814    4.8056  -18.8721 C   0  0  0  0  0  0  0  0  0  0  0  0
   -8.6566    3.7231  -18.4188 C   0  0  0  0  0  0  0  0  0  0  0  0
   -9.4698    2.5348  -18.0166 C   0  0  0  0  0  0  0  0  0  0  0  0
   -7.7186    4.2593  -17.3615 C   0  0  0  0  0  0  0  0  0  0  0  0
   -8.0825    4.4809  -16.0283 C   0  0  0  0  0  0  0  0  0  0  0  0
   -7.1268    5.0067  -15.1532 C   0  0  0  0  0  0  0  0  0  0  0  0
   -7.4456    5.4724  -13.7861 C   0  0  0  0  0  0  0  0  0  0  0  0
   -7.2270    6.6021  -13.5753 O   0  0  0  0  0  0  0  0  0  0  0  0
   -7.9289    4.3477  -12.8342 N   0  0  0  0  0  0  0  0  0  0  0  0
   -8.1456    4.3579  -11.4474 C   0  0  0  0  0  0  0  0  0  0  0  0
   -7.9111    5.5464  -10.7229 C   0  0  0  0  0  0  0  0  0  0  0  0
   -8.0110    5.5937   -9.3276 C   0  0  0  0  0  0  0  0  0  0  0  0
   -8.3790    4.4424   -8.6654 C   0  0  0  0  0  0  0  0  0  0  0  0
   -8.6743    3.2833   -9.3830 C   0  0  0  0  0  0  0  0  0  0  0  0
   -8.5440    3.2011  -10.7665 C   0  0  0  0  0  0  0  0  0  0  0  0
   -9.1154    2.2828   -8.3965 C   0  0  0  0  0  0  0  0  0  0  0  0
   -9.5086    1.1594   -8.6138 O   0  0  0  0  0  0  0  0  0  0  0  0
   -9.0564    2.8713   -7.1491 N   0  0  0  0  0  0  0  0  0  0  0  0
   -8.5126    4.1970   -7.2015 C   0  0  0  0  0  0  0  0  0  0  0  0
   -5.8404    5.2722  -15.6533 C   0  0  0  0  0  0  0  0  0  0  0  0
   -4.6110    5.7511  -15.1752 C   0  0  0  0  0  0  0  0  0  0  0  0
   -3.6673    5.7997  -16.1167 N   0  0  0  0  0  0  0  0  0  0  0  0
   -4.2963    5.4120  -17.2632 N   0  0  0  0  0  0  0  0  0  0  0  0
   -3.6261    5.4293  -18.5215 C   0  0  0  0  0  0  0  0  0  0  0  0
   -4.3394    5.3453  -19.7311 C   0  0  0  0  0  0  0  0  0  0  0  0
   -3.6683    5.3551  -20.9593 C   0  0  0  0  0  0  0  0  0  0  0  0
   -2.2806    5.4413  -20.9959 C   0  0  0  0  0  0  0  0  0  0  0  0
   -1.5659    5.5361  -19.8046 C   0  0  0  0  0  0  0  0  0  0  0  0
   -2.2330    5.5408  -18.5794 C   0  0  0  0  0  0  0  0  0  0  0  0
   -1.4749    5.6192  -17.4769 F   0  0  0  0  0  0  0  0  0  0  0  0
   -5.6136    5.0517  -16.9984 C   0  0  0  0  0  0  0  0  0  0  0  0
   -6.5090    4.5638  -17.8675 N   0  0  0  0  0  0  0  0  0  0  0  0
  1  2  1  0
  2  3  1  0
  2  4  1  0
  4  5  2  0
  5  6  1  0
  6  7  1  0
  7  8  2  0
  7  9  1  0
  9 10  1  0
 10 11  2  0
 11 12  1  0
 12 13  2  0
 13 14  1  0
 14 15  2  0
 14 16  1  0
 16 17  2  0
 16 18  1  0
 18 19  1  0
  6 20  2  0
 20 21  1  0
 21 22  2  0
 22 23  1  0
 23 24  1  0
 24 25  2  0
 25 26  1  0
 26 27  2  0
 27 28  1  0
 28 29  2  0
 29 30  1  0
 23 31  1  0
 31 32  2  0
 32  4  1  0
 15 10  1  0
 31 20  1  0
 19 13  1  0
 29 24  1  0
M  END
>  <name>  (298) 
P116083

>  <alias>  (298) 
None

>  <smina_score_min>  (298) 
-8.23

>  <exports>  (298) 
['/opt/xchem-fragalysis-2/maxwin/BulkDock/OUTPUTS/openbind_xx01zvns2b_c2_elabs_1LOUTNY.sdf', '/opt/xchem-fragalysis-2/maxwin/BulkDock/OUTPUTS/openbind_xx01zvns2b_c2_elabs_1LSYIIV.sdf']

>  <tags>  (298) 
syndirella_placed,openbind_xx01zvns2b_c2_elabs,openbind_xx01zvns2b_c2_elabs_scored_6.2plus,syndirella_product,openbind_xx01zvns2b_c2_elabs_scored,openbind_xx01zvns2b_c2_elabs_scored_top80percent,BulkDock Fragalysis export

>  <subsites>  (298) 
1 - Z4590/B/203/1

>  <smiles>  (298) 
CC(C)c1cc(C(=O)Nc2ccc3c(c2)C(=O)NC3)c2cnn(-c3ccccc3F)c2n1

>  <HIPPO Pose ID>  (298) 
116083

>  <energy_score>  (298) 
-36.263799

>  <inchikey>  (298) 
USTQCLFQKJKEMW-UHFFFAOYSA-N

>  <gnina_score_min>  (298) 
6.495

>  <gnina_score>  (298) 
6.357

>  <ref_mols>  (298) 
Z3556a

>  <HIPPO Compound ID>  (298) 
179291

>  <distance_score>  (298) 
0.539414

>  <rmsd(smina/fragmenstein)>  (298) 
0.971

>  <ref_pdb>  (298) 
Z3556a

>  <inspiration_score>  (298) 
None

$$$$
P116084
     RDKit          3D

 32 36  0  0  0  0  0  0  0  0999 V2000
  -10.6175    4.6172  -18.3324 C   0  0  0  0  0  0  0  0  0  0  0  0
   -9.2265    4.0217  -18.3956 C   0  0  0  0  0  0  0  0  0  0  0  0
   -9.3567    2.5370  -18.1942 C   0  0  0  0  0  0  0  0  0  0  0  0
   -8.1458    4.5245  -17.4504 C   0  0  0  0  0  0  0  0  0  0  0  0
   -8.3708    4.6877  -16.0813 C   0  0  0  0  0  0  0  0  0  0  0  0
   -7.3195    5.1049  -15.2618 C   0  0  0  0  0  0  0  0  0  0  0  0
   -7.5286    5.5170  -13.8618 C   0  0  0  0  0  0  0  0  0  0  0  0
   -7.3193    6.6376  -13.6080 O   0  0  0  0  0  0  0  0  0  0  0  0
   -7.9739    4.3500  -12.9520 N   0  0  0  0  0  0  0  0  0  0  0  0
   -8.1574    4.2974  -11.5663 C   0  0  0  0  0  0  0  0  0  0  0  0
   -8.0955    5.4766  -10.7957 C   0  0  0  0  0  0  0  0  0  0  0  0
   -8.2472    5.4418   -9.4061 C   0  0  0  0  0  0  0  0  0  0  0  0
   -8.4644    4.2109   -8.8231 C   0  0  0  0  0  0  0  0  0  0  0  0
   -8.5296    3.0326   -9.5623 C   0  0  0  0  0  0  0  0  0  0  0  0
   -8.3798    3.0610  -10.9434 C   0  0  0  0  0  0  0  0  0  0  0  0
   -8.7222    1.8766   -8.6365 C   0  0  0  0  0  0  0  0  0  0  0  0
   -8.8783    2.5178   -7.3461 N   0  0  0  0  0  0  0  0  0  0  0  0
   -8.6254    3.8713   -7.4048 C   0  0  0  0  0  0  0  0  0  0  0  0
   -8.5151    4.6458   -6.4734 O   0  0  0  0  0  0  0  0  0  0  0  0
   -6.0546    5.2791  -15.8338 C   0  0  0  0  0  0  0  0  0  0  0  0
   -4.7508    5.5909  -15.4117 C   0  0  0  0  0  0  0  0  0  0  0  0
   -3.8610    5.5600  -16.4075 N   0  0  0  0  0  0  0  0  0  0  0  0
   -4.6277    5.3866  -17.5304 N   0  0  0  0  0  0  0  0  0  0  0  0
   -4.0324    5.4762  -18.8117 C   0  0  0  0  0  0  0  0  0  0  0  0
   -2.6637    5.2103  -18.9575 C   0  0  0  0  0  0  0  0  0  0  0  0
   -2.0727    5.2616  -20.2223 C   0  0  0  0  0  0  0  0  0  0  0  0
   -2.8324    5.5918  -21.3438 C   0  0  0  0  0  0  0  0  0  0  0  0
   -4.1810    5.9054  -21.1943 C   0  0  0  0  0  0  0  0  0  0  0  0
   -4.7698    5.8629  -19.9307 C   0  0  0  0  0  0  0  0  0  0  0  0
   -6.0128    6.3454  -19.8189 F   0  0  0  0  0  0  0  0  0  0  0  0
   -5.9487    5.1091  -17.2025 C   0  0  0  0  0  0  0  0  0  0  0  0
   -6.9400    4.7220  -18.0279 N   0  0  0  0  0  0  0  0  0  0  0  0
  1  2  1  0
  2  3  1  0
  2  4  1  0
  4  5  2  0
  5  6  1  0
  6  7  1  0
  7  8  2  0
  7  9  1  0
  9 10  1  0
 10 11  2  0
 11 12  1  0
 12 13  2  0
 13 14  1  0
 14 15  2  0
 14 16  1  0
 16 17  1  0
 17 18  1  0
 18 19  2  0
  6 20  2  0
 20 21  1  0
 21 22  2  0
 22 23  1  0
 23 24  1  0
 24 25  2  0
 25 26  1  0
 26 27  2  0
 27 28  1  0
 28 29  2  0
 29 30  1  0
 23 31  1  0
 31 32  2  0
 32  4  1  0
 15 10  1  0
 31 20  1  0
 18 13  1  0
 29 24  1  0
M  END
>  <name>  (299) 
P116084

>  <alias>  (299) 
None

>  <smina_score_min>  (299) 
-8.417

>  <exports>  (299) 
['/opt/xchem-fragalysis-2/maxwin/BulkDock/OUTPUTS/openbind_xx01zvns2b_c2_elabs_1LOUTNY.sdf', '/opt/xchem-fragalysis-2/maxwin/BulkDock/OUTPUTS/openbind_xx01zvns2b_c2_elabs_1LSYIIV.sdf']

>  <tags>  (299) 
syndirella_placed,openbind_xx01zvns2b_c2_elabs,openbind_xx01zvns2b_c2_elabs_scored_6.2plus,syndirella_product,openbind_xx01zvns2b_c2_elabs_scored,openbind_xx01zvns2b_c2_elabs_scored_top80percent,BulkDock Fragalysis export

>  <subsites>  (299) 
1 - Z4590/B/203/1

>  <smiles>  (299) 
CC(C)c1cc(C(=O)Nc2ccc3c(c2)CNC3=O)c2cnn(-c3ccccc3F)c2n1

>  <HIPPO Pose ID>  (299) 
116084

>  <energy_score>  (299) 
-18.017998

>  <inchikey>  (299) 
UROGSIQVVJUZFE-UHFFFAOYSA-N

>  <gnina_score_min>  (299) 
6.528

>  <gnina_score>  (299) 
6.441

>  <ref_mols>  (299) 
Z3556a

>  <HIPPO Compound ID>  (299) 
179292

>  <distance_score>  (299) 
0.395036

>  <rmsd(smina/fragmenstein)>  (299) 
0.486

>  <ref_pdb>  (299) 
Z3556a

>  <inspiration_score>  (299) 
None

$$$$
P116085
     RDKit          3D

 32 36  0  0  0  0  0  0  0  0999 V2000
  -10.2484    4.4353  -18.1824 C   0  0  0  0  0  0  0  0  0  0  0  0
   -8.9360    3.7417  -17.8738 C   0  0  0  0  0  0  0  0  0  0  0  0
   -8.3427    3.2458  -19.1807 C   0  0  0  0  0  0  0  0  0  0  0  0
   -7.9269    4.5245  -17.0610 C   0  0  0  0  0  0  0  0  0  0  0  0
   -8.1299    4.7209  -15.6974 C   0  0  0  0  0  0  0  0  0  0  0  0
   -7.0897    5.2590  -14.9361 C   0  0  0  0  0  0  0  0  0  0  0  0
   -7.2749    5.6433  -13.5282 C   0  0  0  0  0  0  0  0  0  0  0  0
   -7.0323    6.7501  -13.2447 O   0  0  0  0  0  0  0  0  0  0  0  0
   -7.8068    4.4805  -12.6604 N   0  0  0  0  0  0  0  0  0  0  0  0
   -8.0529    4.4125  -11.2893 C   0  0  0  0  0  0  0  0  0  0  0  0
   -8.0035    5.5789  -10.5072 C   0  0  0  0  0  0  0  0  0  0  0  0
   -8.2286    5.5317   -9.1305 C   0  0  0  0  0  0  0  0  0  0  0  0
   -8.5016    4.3054   -8.5563 C   0  0  0  0  0  0  0  0  0  0  0  0
   -8.5560    3.1467   -9.3238 C   0  0  0  0  0  0  0  0  0  0  0  0
   -8.3394    3.1795  -10.6957 C   0  0  0  0  0  0  0  0  0  0  0  0
   -8.8494    1.9777   -8.4364 C   0  0  0  0  0  0  0  0  0  0  0  0
   -8.9866    2.5309   -7.0674 N   0  0  0  0  0  0  0  0  0  0  0  0
  -10.2230    2.1478   -6.4157 C   0  0  0  0  0  0  0  0  0  0  0  0
   -8.7762    3.9838   -7.1253 C   0  0  0  0  0  0  0  0  0  0  0  0
   -5.8596    5.5074  -15.5575 C   0  0  0  0  0  0  0  0  0  0  0  0
   -4.5582    5.8930  -15.1968 C   0  0  0  0  0  0  0  0  0  0  0  0
   -3.7079    5.8872  -16.2281 N   0  0  0  0  0  0  0  0  0  0  0  0
   -4.5012    5.6315  -17.3142 N   0  0  0  0  0  0  0  0  0  0  0  0
   -3.9487    5.6336  -18.6185 C   0  0  0  0  0  0  0  0  0  0  0  0
   -2.5810    5.3734  -18.7856 C   0  0  0  0  0  0  0  0  0  0  0  0
   -2.0314    5.3174  -20.0687 C   0  0  0  0  0  0  0  0  0  0  0  0
   -2.8314    5.5407  -21.1888 C   0  0  0  0  0  0  0  0  0  0  0  0
   -4.1795    5.8495  -21.0232 C   0  0  0  0  0  0  0  0  0  0  0  0
   -4.7287    5.9080  -19.7425 C   0  0  0  0  0  0  0  0  0  0  0  0
   -5.9818    6.3673  -19.6351 F   0  0  0  0  0  0  0  0  0  0  0  0
   -5.7982    5.3318  -16.9259 C   0  0  0  0  0  0  0  0  0  0  0  0
   -6.7988    4.8873  -17.6990 N   0  0  0  0  0  0  0  0  0  0  0  0
  1  2  1  0
  2  3  1  0
  2  4  1  0
  4  5  2  0
  5  6  1  0
  6  7  1  0
  7  8  2  0
  7  9  1  0
  9 10  1  0
 10 11  2  0
 11 12  1  0
 12 13  2  0
 13 14  1  0
 14 15  2  0
 14 16  1  0
 16 17  1  0
 17 18  1  0
 17 19  1  0
  6 20  2  0
 20 21  1  0
 21 22  2  0
 22 23  1  0
 23 24  1  0
 24 25  2  0
 25 26  1  0
 26 27  2  0
 27 28  1  0
 28 29  2  0
 29 30  1  0
 23 31  1  0
 31 32  2  0
 32  4  1  0
 15 10  1  0
 31 20  1  0
 19 13  1  0
 29 24  1  0
M  END
>  <name>  (300) 
P116085

>  <alias>  (300) 
None

>  <smina_score_min>  (300) 
-7.942

>  <exports>  (300) 
['/opt/xchem-fragalysis-2/maxwin/BulkDock/OUTPUTS/openbind_xx01zvns2b_c2_elabs_1LOUTNY.sdf', '/opt/xchem-fragalysis-2/maxwin/BulkDock/OUTPUTS/openbind_xx01zvns2b_c2_elabs_1LSYIIV.sdf']

>  <tags>  (300) 
syndirella_placed,openbind_xx01zvns2b_c2_elabs,openbind_xx01zvns2b_c2_elabs_scored_6.2plus,syndirella_product,openbind_xx01zvns2b_c2_elabs_scored,openbind_xx01zvns2b_c2_elabs_scored_top80percent,BulkDock Fragalysis export

>  <subsites>  (300) 
1 - Z4590/B/203/1

>  <smiles>  (300) 
CC(C)c1cc(C(=O)Nc2ccc3c(c2)CN(C)C3)c2cnn(-c3ccccc3F)c2n1

>  <HIPPO Pose ID>  (300) 
116085

>  <energy_score>  (300) 
-73.35251

>  <inchikey>  (300) 
WSDINXLAELAWIS-UHFFFAOYSA-N

>  <gnina_score_min>  (300) 
6.382

>  <gnina_score>  (300) 
6.409

>  <ref_mols>  (300) 
Z3556a

>  <HIPPO Compound ID>  (300) 
179293

>  <distance_score>  (300) 
0.517546

>  <rmsd(smina/fragmenstein)>  (300) 
1.095

>  <ref_pdb>  (300) 
Z3556a

>  <inspiration_score>  (300) 
None

$$$$
P116087
     RDKit          3D

 32 36  0  0  0  0  0  0  0  0999 V2000
  -10.3014    4.4465  -18.1923 C   0  0  0  0  0  0  0  0  0  0  0  0
   -8.9980    3.7502  -17.8542 C   0  0  0  0  0  0  0  0  0  0  0  0
   -8.3968    3.2235  -19.1457 C   0  0  0  0  0  0  0  0  0  0  0  0
   -7.9838    4.5406  -17.0579 C   0  0  0  0  0  0  0  0  0  0  0  0
   -8.1489    4.7166  -15.6877 C   0  0  0  0  0  0  0  0  0  0  0  0
   -7.0854    5.2408  -14.9493 C   0  0  0  0  0  0  0  0  0  0  0  0
   -7.2401    5.5996  -13.5313 C   0  0  0  0  0  0  0  0  0  0  0  0
   -7.0758    6.7192  -13.2433 O   0  0  0  0  0  0  0  0  0  0  0  0
   -7.6159    4.3838  -12.6534 N   0  0  0  0  0  0  0  0  0  0  0  0
   -7.9494    4.3114  -11.3000 C   0  0  0  0  0  0  0  0  0  0  0  0
   -7.9405    5.4704  -10.4990 C   0  0  0  0  0  0  0  0  0  0  0  0
   -8.2145    5.4017   -9.1306 C   0  0  0  0  0  0  0  0  0  0  0  0
   -8.4904    4.1582   -8.6016 C   0  0  0  0  0  0  0  0  0  0  0  0
   -8.5123    3.0011   -9.3758 C   0  0  0  0  0  0  0  0  0  0  0  0
   -8.2518    3.0631  -10.7377 C   0  0  0  0  0  0  0  0  0  0  0  0
   -8.7733    1.8213   -8.4992 C   0  0  0  0  0  0  0  0  0  0  0  0
   -8.9990    2.4255   -7.2009 N   0  0  0  0  0  0  0  0  0  0  0  0
   -8.7454    3.7805   -7.2070 C   0  0  0  0  0  0  0  0  0  0  0  0
   -8.7002    4.5306   -6.2506 O   0  0  0  0  0  0  0  0  0  0  0  0
   -5.8676    5.4840  -15.5980 C   0  0  0  0  0  0  0  0  0  0  0  0
   -4.5593    5.8760  -15.2728 C   0  0  0  0  0  0  0  0  0  0  0  0
   -3.7364    5.8790  -16.3262 N   0  0  0  0  0  0  0  0  0  0  0  0
   -4.5369    5.5496  -17.3858 N   0  0  0  0  0  0  0  0  0  0  0  0
   -3.9996    5.4673  -18.7075 C   0  0  0  0  0  0  0  0  0  0  0  0
   -4.8323    5.3923  -19.8368 C   0  0  0  0  0  0  0  0  0  0  0  0
   -4.2796    5.2856  -21.1158 C   0  0  0  0  0  0  0  0  0  0  0  0
   -2.9003    5.2411  -21.2677 C   0  0  0  0  0  0  0  0  0  0  0  0
   -2.3805    5.1111  -22.4956 F   0  0  0  0  0  0  0  0  0  0  0  0
   -2.0599    5.3280  -20.1650 C   0  0  0  0  0  0  0  0  0  0  0  0
   -2.6058    5.4538  -18.8838 C   0  0  0  0  0  0  0  0  0  0  0  0
   -5.8392    5.3080  -16.9682 C   0  0  0  0  0  0  0  0  0  0  0  0
   -6.8777    4.9186  -17.7229 N   0  0  0  0  0  0  0  0  0  0  0  0
  1  2  1  0
  2  3  1  0
  2  4  1  0
  4  5  2  0
  5  6  1  0
  6  7  1  0
  7  8  2  0
  7  9  1  0
  9 10  1  0
 10 11  2  0
 11 12  1  0
 12 13  2  0
 13 14  1  0
 14 15  2  0
 14 16  1  0
 16 17  1  0
 17 18  1  0
 18 19  2  0
  6 20  2  0
 20 21  1  0
 21 22  2  0
 22 23  1  0
 23 24  1  0
 24 25  2  0
 25 26  1  0
 26 27  2  0
 27 28  1  0
 27 29  1  0
 29 30  2  0
 23 31  1  0
 31 32  2  0
 32  4  1  0
 15 10  1  0
 31 20  1  0
 18 13  1  0
 30 24  1  0
M  END
>  <name>  (301) 
P116087

>  <alias>  (301) 
None

>  <smina_score_min>  (301) 
-8.573

>  <exports>  (301) 
['/opt/xchem-fragalysis-2/maxwin/BulkDock/OUTPUTS/openbind_xx01zvns2b_c2_elabs_1LOUTNY.sdf', '/opt/xchem-fragalysis-2/maxwin/BulkDock/OUTPUTS/openbind_xx01zvns2b_c2_elabs_1LSYIIV.sdf']

>  <tags>  (301) 
syndirella_placed,openbind_xx01zvns2b_c2_elabs,openbind_xx01zvns2b_c2_elabs_scored_6.2plus,syndirella_product,openbind_xx01zvns2b_c2_elabs_scored,openbind_xx01zvns2b_c2_elabs_scored_top80percent,BulkDock Fragalysis export

>  <subsites>  (301) 
1 - Z4590/B/203/1

>  <smiles>  (301) 
CC(C)c1cc(C(=O)Nc2ccc3c(c2)CNC3=O)c2cnn(-c3ccc(F)cc3)c2n1

>  <HIPPO Pose ID>  (301) 
116087

>  <energy_score>  (301) 
-46.193535

>  <inchikey>  (301) 
YVXAPGZKYZGSNL-UHFFFAOYSA-N

>  <gnina_score_min>  (301) 
6.26

>  <gnina_score>  (301) 
6.252

>  <ref_mols>  (301) 
Z3556a

>  <HIPPO Compound ID>  (301) 
179295

>  <distance_score>  (301) 
0.487167

>  <rmsd(smina/fragmenstein)>  (301) 
1.074

>  <ref_pdb>  (301) 
Z3556a

>  <inspiration_score>  (301) 
None

$$$$
P116089
     RDKit          3D

 32 35  0  0  0  0  0  0  0  0999 V2000
   -0.2368    6.1457  -19.8852 C   0  0  0  0  0  0  0  0  0  0  0  0
   -1.6830    6.3759  -19.4774 C   0  0  0  0  0  0  0  0  0  0  0  0
   -2.5144    5.0932  -19.5884 C   0  0  0  0  0  0  0  0  0  0  0  0
   -3.9812    5.3082  -19.1957 C   0  0  0  0  0  0  0  0  0  0  0  0
   -4.2801    5.2561  -17.7790 N   0  0  0  0  0  0  0  0  0  0  0  0
   -3.3423    5.5344  -16.8501 N   0  0  0  0  0  0  0  0  0  0  0  0
   -4.0106    5.4998  -15.6896 C   0  0  0  0  0  0  0  0  0  0  0  0
   -3.2809    5.7639  -14.4239 C   0  0  0  0  0  0  0  0  0  0  0  0
   -5.3850    5.1992  -15.8811 C   0  0  0  0  0  0  0  0  0  0  0  0
   -6.5456    5.0746  -15.1113 C   0  0  0  0  0  0  0  0  0  0  0  0
   -6.5181    5.4852  -13.6911 C   0  0  0  0  0  0  0  0  0  0  0  0
   -6.0666    6.5381  -13.4562 O   0  0  0  0  0  0  0  0  0  0  0  0
   -7.1939    4.4500  -12.7551 N   0  0  0  0  0  0  0  0  0  0  0  0
   -7.5267    4.5331  -11.4065 C   0  0  0  0  0  0  0  0  0  0  0  0
   -7.2990    5.7415  -10.7197 C   0  0  0  0  0  0  0  0  0  0  0  0
   -7.6236    5.8847   -9.3745 C   0  0  0  0  0  0  0  0  0  0  0  0
   -8.1826    4.8015   -8.7369 C   0  0  0  0  0  0  0  0  0  0  0  0
   -8.4448    3.6176   -9.4219 C   0  0  0  0  0  0  0  0  0  0  0  0
   -8.1268    3.4484  -10.7589 C   0  0  0  0  0  0  0  0  0  0  0  0
   -9.0614    2.6907   -8.4640 C   0  0  0  0  0  0  0  0  0  0  0  0
   -9.3971    1.5557   -8.7256 O   0  0  0  0  0  0  0  0  0  0  0  0
   -9.1770    3.3721   -7.2515 N   0  0  0  0  0  0  0  0  0  0  0  0
   -9.4431    2.6914   -5.9909 C   0  0  0  0  0  0  0  0  0  0  0  0
  -10.8228    2.0425   -5.9797 C   0  0  0  0  0  0  0  0  0  0  0  0
   -9.3104    3.6064   -4.7677 C   0  0  0  0  0  0  0  0  0  0  0  0
   -8.5423    4.6667   -7.3064 C   0  0  0  0  0  0  0  0  0  0  0  0
   -7.7386    4.7520  -15.7726 C   0  0  0  0  0  0  0  0  0  0  0  0
   -9.2002    4.7798  -14.8833 Cl  0  0  0  0  0  0  0  0  0  0  0  0
   -7.7309    4.5193  -17.1555 C   0  0  0  0  0  0  0  0  0  0  0  0
   -8.9596    4.0537  -17.8979 C   0  0  0  0  0  0  0  0  0  0  0  0
   -6.6278    4.6774  -17.9265 N   0  0  0  0  0  0  0  0  0  0  0  0
   -5.5168    5.0124  -17.2465 C   0  0  0  0  0  0  0  0  0  0  0  0
  1  2  1  0
  2  3  1  0
  3  4  1  0
  4  5  1  0
  5  6  1  0
  6  7  2  0
  7  8  1  0
  7  9  1  0
  9 10  2  0
 10 11  1  0
 11 12  2  0
 11 13  1  0
 13 14  1  0
 14 15  2  0
 15 16  1  0
 16 17  2  0
 17 18  1  0
 18 19  2  0
 18 20  1  0
 20 21  2  0
 20 22  1  0
 22 23  1  0
 23 24  1  0
 23 25  1  0
 22 26  1  0
 10 27  1  0
 27 28  1  0
 27 29  2  0
 29 30  1  0
 29 31  1  0
 31 32  2  0
 32  5  1  0
 32  9  1  0
 19 14  1  0
 26 17  1  0
M  END
>  <name>  (302) 
P116089

>  <alias>  (302) 
None

>  <smina_score_min>  (302) 
-7.258

>  <exports>  (302) 
['/opt/xchem-fragalysis-2/maxwin/BulkDock/OUTPUTS/openbind_xx01zvns2b_c2_elabs_1LOUTNY.sdf', '/opt/xchem-fragalysis-2/maxwin/BulkDock/OUTPUTS/openbind_xx01zvns2b_c2_elabs_1LSYIIV.sdf']

>  <tags>  (302) 
syndirella_placed,openbind_xx01zvns2b_c2_elabs,openbind_xx01zvns2b_c2_elabs_scored_6.2plus,syndirella_product,openbind_xx01zvns2b_c2_elabs_scored,openbind_xx01zvns2b_c2_elabs_scored_top80percent,BulkDock Fragalysis export

>  <subsites>  (302) 
1 - Z4590/B/203/1

>  <smiles>  (302) 
CCCCn1nc(C)c2c(C(=O)Nc3ccc4c(c3)C(=O)N(C(C)C)C4)c(Cl)c(C)nc21

>  <HIPPO Pose ID>  (302) 
116089

>  <energy_score>  (302) 
-31.385503

>  <inchikey>  (302) 
GYNKBFPUBYKSEI-UHFFFAOYSA-N

>  <gnina_score_min>  (302) 
6.301

>  <gnina_score>  (302) 
6.307

>  <ref_mols>  (302) 
Z3556a

>  <HIPPO Compound ID>  (302) 
179297

>  <distance_score>  (302) 
0.822169

>  <rmsd(smina/fragmenstein)>  (302) 
0.565

>  <ref_pdb>  (302) 
Z3556a

>  <inspiration_score>  (302) 
None

$$$$
P116090
     RDKit          3D

 32 35  0  0  0  0  0  0  0  0999 V2000
   -2.9038    4.5649  -22.0421 C   0  0  0  0  0  0  0  0  0  0  0  0
   -2.1527    5.4304  -21.0454 C   0  0  0  0  0  0  0  0  0  0  0  0
   -2.4685    5.0997  -19.5845 C   0  0  0  0  0  0  0  0  0  0  0  0
   -3.9256    5.3943  -19.2158 C   0  0  0  0  0  0  0  0  0  0  0  0
   -4.2327    5.3108  -17.8017 N   0  0  0  0  0  0  0  0  0  0  0  0
   -3.3121    5.6460  -16.8717 N   0  0  0  0  0  0  0  0  0  0  0  0
   -3.9916    5.6276  -15.7175 C   0  0  0  0  0  0  0  0  0  0  0  0
   -3.2900    5.9535  -14.4503 C   0  0  0  0  0  0  0  0  0  0  0  0
   -5.3551    5.2943  -15.9167 C   0  0  0  0  0  0  0  0  0  0  0  0
   -6.5174    5.1657  -15.1576 C   0  0  0  0  0  0  0  0  0  0  0  0
   -6.5015    5.5415  -13.7300 C   0  0  0  0  0  0  0  0  0  0  0  0
   -6.1814    6.6272  -13.4441 O   0  0  0  0  0  0  0  0  0  0  0  0
   -7.0334    4.3894  -12.8489 N   0  0  0  0  0  0  0  0  0  0  0  0
   -7.3603    4.3627  -11.4992 C   0  0  0  0  0  0  0  0  0  0  0  0
   -7.3105    5.5260  -10.7112 C   0  0  0  0  0  0  0  0  0  0  0  0
   -7.7296    5.5092   -9.3781 C   0  0  0  0  0  0  0  0  0  0  0  0
   -8.2026    4.3187   -8.8681 C   0  0  0  0  0  0  0  0  0  0  0  0
   -8.2511    3.1632   -9.6520 C   0  0  0  0  0  0  0  0  0  0  0  0
   -7.8310    3.1618  -10.9663 C   0  0  0  0  0  0  0  0  0  0  0  0
   -8.8311    2.0505   -8.8439 C   0  0  0  0  0  0  0  0  0  0  0  0
   -9.5126    2.7667   -7.7538 N   0  0  0  0  0  0  0  0  0  0  0  0
   -9.7273    1.9490   -6.5695 C   0  0  0  0  0  0  0  0  0  0  0  0
  -10.7620    2.5876   -5.6480 C   0  0  0  0  0  0  0  0  0  0  0  0
  -11.3180    1.6592   -4.8286 F   0  0  0  0  0  0  0  0  0  0  0  0
  -10.1999    3.5331   -4.8531 F   0  0  0  0  0  0  0  0  0  0  0  0
   -8.7413    3.9996   -7.5115 C   0  0  0  0  0  0  0  0  0  0  0  0
   -7.7021    4.8026  -15.8137 C   0  0  0  0  0  0  0  0  0  0  0  0
   -9.1622    4.7781  -14.9191 Cl  0  0  0  0  0  0  0  0  0  0  0  0
   -7.6830    4.5461  -17.1911 C   0  0  0  0  0  0  0  0  0  0  0  0
   -8.9039    4.0539  -17.9301 C   0  0  0  0  0  0  0  0  0  0  0  0
   -6.5750    4.7008  -17.9569 N   0  0  0  0  0  0  0  0  0  0  0  0
   -5.4721    5.0650  -17.2770 C   0  0  0  0  0  0  0  0  0  0  0  0
  1  2  1  0
  2  3  1  0
  3  4  1  0
  4  5  1  0
  5  6  1  0
  6  7  2  0
  7  8  1  0
  7  9  1  0
  9 10  2  0
 10 11  1  0
 11 12  2  0
 11 13  1  0
 13 14  1  0
 14 15  2  0
 15 16  1  0
 16 17  2  0
 17 18  1  0
 18 19  2  0
 18 20  1  0
 20 21  1  0
 21 22  1  0
 22 23  1  0
 23 24  1  0
 23 25  1  0
 21 26  1  0
 10 27  1  0
 27 28  1  0
 27 29  2  0
 29 30  1  0
 29 31  1  0
 31 32  2  0
 32  5  1  0
 32  9  1  0
 19 14  1  0
 26 17  1  0
M  END
>  <name>  (303) 
P116090

>  <alias>  (303) 
None

>  <smina_score_min>  (303) 
-7.89

>  <exports>  (303) 
['/opt/xchem-fragalysis-2/maxwin/BulkDock/OUTPUTS/openbind_xx01zvns2b_c2_elabs_1LOUTNY.sdf', '/opt/xchem-fragalysis-2/maxwin/BulkDock/OUTPUTS/openbind_xx01zvns2b_c2_elabs_1LSYIIV.sdf']

>  <tags>  (303) 
syndirella_placed,openbind_xx01zvns2b_c2_elabs,openbind_xx01zvns2b_c2_elabs_scored_6.2plus,syndirella_product,openbind_xx01zvns2b_c2_elabs_scored,openbind_xx01zvns2b_c2_elabs_scored_top80percent,BulkDock Fragalysis export

>  <subsites>  (303) 
1 - Z4590/B/203/1

>  <smiles>  (303) 
CCCCn1nc(C)c2c(C(=O)Nc3ccc4c(c3)CN(CC(F)F)C4)c(Cl)c(C)nc21

>  <HIPPO Pose ID>  (303) 
116090

>  <energy_score>  (303) 
-55.29896

>  <inchikey>  (303) 
IDNOSGHANWZIKA-UHFFFAOYSA-N

>  <gnina_score_min>  (303) 
6.435

>  <gnina_score>  (303) 
6.397

>  <ref_mols>  (303) 
Z3556a

>  <HIPPO Compound ID>  (303) 
179298

>  <distance_score>  (303) 
0.794958

>  <rmsd(smina/fragmenstein)>  (303) 
0.368

>  <ref_pdb>  (303) 
Z3556a

>  <inspiration_score>  (303) 
None

$$$$
P116091
     RDKit          3D

 32 35  0  0  0  0  0  0  0  0999 V2000
   -8.9771    5.1791   -2.7970 C   0  0  0  0  0  0  0  0  0  0  0  0
   -9.0394    4.9405   -4.3002 C   0  0  0  0  0  0  0  0  0  0  0  0
   -9.0665    3.4472   -4.6223 C   0  0  0  0  0  0  0  0  0  0  0  0
   -9.5610    3.0329   -6.0220 C   0  0  0  0  0  0  0  0  0  0  0  0
   -8.6260    3.3695   -7.0788 N   0  0  0  0  0  0  0  0  0  0  0  0
   -8.5041    4.7963   -7.3515 C   0  0  0  0  0  0  0  0  0  0  0  0
   -8.1589    4.8760   -8.7917 C   0  0  0  0  0  0  0  0  0  0  0  0
   -7.7146    5.9836   -9.4770 C   0  0  0  0  0  0  0  0  0  0  0  0
   -7.3788    5.8175  -10.8106 C   0  0  0  0  0  0  0  0  0  0  0  0
   -7.5049    4.5677  -11.4400 C   0  0  0  0  0  0  0  0  0  0  0  0
   -7.1696    4.4684  -12.7869 N   0  0  0  0  0  0  0  0  0  0  0  0
   -6.5335    5.5088  -13.7461 C   0  0  0  0  0  0  0  0  0  0  0  0
   -6.1220    6.5832  -13.5341 O   0  0  0  0  0  0  0  0  0  0  0  0
   -6.5562    5.0754  -15.1559 C   0  0  0  0  0  0  0  0  0  0  0  0
   -7.7534    4.7421  -15.8040 C   0  0  0  0  0  0  0  0  0  0  0  0
   -9.2053    4.7595  -14.9001 Cl  0  0  0  0  0  0  0  0  0  0  0  0
   -7.7571    4.5032  -17.1847 C   0  0  0  0  0  0  0  0  0  0  0  0
   -8.9918    4.0444  -17.9191 C   0  0  0  0  0  0  0  0  0  0  0  0
   -6.6599    4.6529  -17.9621 N   0  0  0  0  0  0  0  0  0  0  0  0
   -5.5464    5.0022  -17.2953 C   0  0  0  0  0  0  0  0  0  0  0  0
   -5.4025    5.2029  -15.9337 C   0  0  0  0  0  0  0  0  0  0  0  0
   -4.0284    5.5165  -15.7575 C   0  0  0  0  0  0  0  0  0  0  0  0
   -3.2947    5.8055  -14.4997 C   0  0  0  0  0  0  0  0  0  0  0  0
   -3.3669    5.5309  -16.9240 N   0  0  0  0  0  0  0  0  0  0  0  0
   -4.3198    5.2515  -17.8389 N   0  0  0  0  0  0  0  0  0  0  0  0
   -4.0016    5.2528  -19.2493 C   0  0  0  0  0  0  0  0  0  0  0  0
   -4.2550    6.5975  -19.9352 C   0  0  0  0  0  0  0  0  0  0  0  0
   -3.3750    7.7563  -19.4591 C   0  0  0  0  0  0  0  0  0  0  0  0
   -1.8902    7.5298  -19.6975 C   0  0  0  0  0  0  0  0  0  0  0  0
   -8.0127    3.4607  -10.7416 C   0  0  0  0  0  0  0  0  0  0  0  0
   -8.3235    3.6318   -9.3999 C   0  0  0  0  0  0  0  0  0  0  0  0
   -8.8554    2.6733   -8.3713 C   0  0  0  0  0  0  0  0  0  0  0  0
  1  2  1  0
  2  3  1  0
  3  4  1  0
  4  5  1  0
  5  6  1  0
  6  7  1  0
  7  8  2  0
  8  9  1  0
  9 10  2  0
 10 11  1  0
 11 12  1  0
 12 13  2  0
 12 14  1  0
 14 15  2  0
 15 16  1  0
 15 17  1  0
 17 18  1  0
 17 19  2  0
 19 20  1  0
 20 21  2  0
 21 22  1  0
 22 23  1  0
 22 24  2  0
 24 25  1  0
 25 26  1  0
 26 27  1  0
 27 28  1  0
 28 29  1  0
 10 30  1  0
 30 31  2  0
 31 32  1  0
 32  5  1  0
 31  7  1  0
 21 14  1  0
 25 20  1  0
M  END
>  <name>  (304) 
P116091

>  <alias>  (304) 
None

>  <smina_score_min>  (304) 
-6.441

>  <exports>  (304) 
['/opt/xchem-fragalysis-2/maxwin/BulkDock/OUTPUTS/openbind_xx01zvns2b_c2_elabs_1LOUTNY.sdf', '/opt/xchem-fragalysis-2/maxwin/BulkDock/OUTPUTS/openbind_xx01zvns2b_c2_elabs_1LSYIIV.sdf']

>  <tags>  (304) 
syndirella_placed,openbind_xx01zvns2b_c2_elabs,openbind_xx01zvns2b_c2_elabs_scored_6.2plus,syndirella_product,openbind_xx01zvns2b_c2_elabs_scored,openbind_xx01zvns2b_c2_elabs_scored_top80percent,BulkDock Fragalysis export

>  <subsites>  (304) 
1 - Z4590/B/203/1

>  <smiles>  (304) 
CCCCN1Cc2ccc(NC(=O)c3c(Cl)c(C)nc4c3c(C)nn4CCCC)cc2C1

>  <HIPPO Pose ID>  (304) 
116091

>  <energy_score>  (304) 
-37.058202

>  <inchikey>  (304) 
JPQOYFOJZMJOCI-UHFFFAOYSA-N

>  <gnina_score_min>  (304) 
6.488

>  <gnina_score>  (304) 
6.401

>  <ref_mols>  (304) 
Z3556a

>  <HIPPO Compound ID>  (304) 
179299

>  <distance_score>  (304) 
0.834617

>  <rmsd(smina/fragmenstein)>  (304) 
0.891

>  <ref_pdb>  (304) 
Z3556a

>  <inspiration_score>  (304) 
None

$$$$
P116098
     RDKit          3D

 32 36  0  0  0  0  0  0  0  0999 V2000
   -9.3736    3.8541  -18.1947 C   0  0  0  0  0  0  0  0  0  0  0  0
   -8.1726    4.2931  -17.4093 C   0  0  0  0  0  0  0  0  0  0  0  0
   -8.2594    4.4537  -16.0261 C   0  0  0  0  0  0  0  0  0  0  0  0
   -7.1412    4.9300  -15.3380 C   0  0  0  0  0  0  0  0  0  0  0  0
   -7.2209    5.4034  -13.9506 C   0  0  0  0  0  0  0  0  0  0  0  0
   -6.8811    6.5044  -13.7576 O   0  0  0  0  0  0  0  0  0  0  0  0
   -7.7140    4.3201  -12.9656 N   0  0  0  0  0  0  0  0  0  0  0  0
   -7.9735    4.3907  -11.5989 C   0  0  0  0  0  0  0  0  0  0  0  0
   -7.8294    5.6347  -10.9548 C   0  0  0  0  0  0  0  0  0  0  0  0
   -8.0291    5.7666   -9.5888 C   0  0  0  0  0  0  0  0  0  0  0  0
   -8.3851    4.6363   -8.8912 C   0  0  0  0  0  0  0  0  0  0  0  0
   -8.5504    3.3940   -9.5084 C   0  0  0  0  0  0  0  0  0  0  0  0
   -8.3417    3.2504  -10.8730 C   0  0  0  0  0  0  0  0  0  0  0  0
   -8.9396    2.3948   -8.4535 C   0  0  0  0  0  0  0  0  0  0  0  0
   -9.3822    3.2462   -7.3166 N   0  0  0  0  0  0  0  0  0  0  0  0
   -9.2173    2.6472   -5.9907 C   0  0  0  0  0  0  0  0  0  0  0  0
   -9.6944    3.5606   -4.8466 C   0  0  0  0  0  0  0  0  0  0  0  0
   -9.5590    2.9665   -3.6389 F   0  0  0  0  0  0  0  0  0  0  0  0
   -8.9425    4.6929   -4.7718 F   0  0  0  0  0  0  0  0  0  0  0  0
   -8.6385    4.5114   -7.4349 C   0  0  0  0  0  0  0  0  0  0  0  0
   -5.9628    5.1701  -16.0519 C   0  0  0  0  0  0  0  0  0  0  0  0
   -4.6562    5.6413  -15.8111 C   0  0  0  0  0  0  0  0  0  0  0  0
   -3.9214    5.7310  -16.9262 N   0  0  0  0  0  0  0  0  0  0  0  0
   -4.7809    5.3340  -17.9021 N   0  0  0  0  0  0  0  0  0  0  0  0
   -4.5266    5.4725  -19.3346 C   0  0  0  0  0  0  0  0  0  0  0  0
   -3.1339    5.8440  -19.7495 C   0  0  0  0  0  0  0  0  0  0  0  0
   -2.2977    6.8376  -19.2732 C   0  0  0  0  0  0  0  0  0  0  0  0
   -1.0595    6.8964  -19.9738 C   0  0  0  0  0  0  0  0  0  0  0  0
   -0.9980    5.9657  -20.9843 C   0  0  0  0  0  0  0  0  0  0  0  0
   -2.4267    5.0359  -21.0913 S   0  0  0  0  0  0  0  0  0  0  0  0
   -6.0071    4.9581  -17.4130 C   0  0  0  0  0  0  0  0  0  0  0  0
   -7.0573    4.5340  -18.1335 N   0  0  0  0  0  0  0  0  0  0  0  0
  1  2  1  0
  2  3  2  0
  3  4  1  0
  4  5  1  0
  5  6  2  0
  5  7  1  0
  7  8  1  0
  8  9  2  0
  9 10  1  0
 10 11  2  0
 11 12  1  0
 12 13  2  0
 12 14  1  0
 14 15  1  0
 15 16  1  0
 16 17  1  0
 17 18  1  0
 17 19  1  0
 15 20  1  0
  4 21  2  0
 21 22  1  0
 22 23  2  0
 23 24  1  0
 24 25  1  0
 25 26  1  0
 26 27  2  0
 27 28  1  0
 28 29  2  0
 29 30  1  0
 24 31  1  0
 31 32  2  0
 32  2  1  0
 13  8  1  0
 31 21  1  0
 20 11  1  0
 30 26  1  0
M  END
>  <name>  (305) 
P116098

>  <alias>  (305) 
None

>  <smina_score_min>  (305) 
-8.389

>  <exports>  (305) 
['/opt/xchem-fragalysis-2/maxwin/BulkDock/OUTPUTS/openbind_xx01zvns2b_c2_elabs_1LOUTNY.sdf', '/opt/xchem-fragalysis-2/maxwin/BulkDock/OUTPUTS/openbind_xx01zvns2b_c2_elabs_1LSYIIV.sdf']

>  <tags>  (305) 
syndirella_placed,openbind_xx01zvns2b_c2_elabs,openbind_xx01zvns2b_c2_elabs_scored_6.2plus,syndirella_product,openbind_xx01zvns2b_c2_elabs_scored,openbind_xx01zvns2b_c2_elabs_scored_top80percent,BulkDock Fragalysis export

>  <subsites>  (305) 
1 - Z4590/B/203/1

>  <smiles>  (305) 
Cc1cc(C(=O)Nc2ccc3c(c2)CN(CC(F)F)C3)c2cnn(Cc3cccs3)c2n1

>  <HIPPO Pose ID>  (305) 
116098

>  <energy_score>  (305) 
-50.588571

>  <inchikey>  (305) 
RNHAUBPQIHSLQJ-UHFFFAOYSA-N

>  <gnina_score_min>  (305) 
6.32

>  <gnina_score>  (305) 
6.193

>  <ref_mols>  (305) 
Z3556a

>  <HIPPO Compound ID>  (305) 
179306

>  <distance_score>  (305) 
0.585744

>  <rmsd(smina/fragmenstein)>  (305) 
0.914

>  <ref_pdb>  (305) 
Z3556a

>  <inspiration_score>  (305) 
None

$$$$
P116100
     RDKit          3D

 32 36  0  0  0  0  0  0  0  0999 V2000
  -11.0691   -1.4613   -6.3477 C   0  0  0  0  0  0  0  0  0  0  0  0
  -10.9968    0.0055   -6.1050 O   0  0  0  0  0  0  0  0  0  0  0  0
  -10.3561    0.8411   -7.0428 C   0  0  0  0  0  0  0  0  0  0  0  0
   -9.2132    1.7281   -6.5788 C   0  0  0  0  0  0  0  0  0  0  0  0
   -8.8046    2.5971   -7.6733 N   0  0  0  0  0  0  0  0  0  0  0  0
   -8.4867    2.0221   -8.9631 C   0  0  0  0  0  0  0  0  0  0  0  0
   -8.2368    3.2175   -9.7941 C   0  0  0  0  0  0  0  0  0  0  0  0
   -7.9777    3.2651  -11.1472 C   0  0  0  0  0  0  0  0  0  0  0  0
   -7.8197    4.5172  -11.7330 C   0  0  0  0  0  0  0  0  0  0  0  0
   -7.5522    4.5434  -13.0945 N   0  0  0  0  0  0  0  0  0  0  0  0
   -7.2802    5.7270  -14.0360 C   0  0  0  0  0  0  0  0  0  0  0  0
   -7.1611    6.8628  -13.8067 O   0  0  0  0  0  0  0  0  0  0  0  0
   -7.1100    5.2492  -15.4138 C   0  0  0  0  0  0  0  0  0  0  0  0
   -8.1737    4.7019  -16.1306 C   0  0  0  0  0  0  0  0  0  0  0  0
   -7.9880    4.4154  -17.4816 C   0  0  0  0  0  0  0  0  0  0  0  0
   -9.1485    3.9028  -18.2879 C   0  0  0  0  0  0  0  0  0  0  0  0
   -6.8199    4.5930  -18.1467 N   0  0  0  0  0  0  0  0  0  0  0  0
   -5.8181    5.0767  -17.3866 C   0  0  0  0  0  0  0  0  0  0  0  0
   -5.8809    5.4183  -16.0484 C   0  0  0  0  0  0  0  0  0  0  0  0
   -4.5889    5.8767  -15.7315 C   0  0  0  0  0  0  0  0  0  0  0  0
   -3.7574    5.8354  -16.7771 N   0  0  0  0  0  0  0  0  0  0  0  0
   -4.5364    5.3664  -17.7842 N   0  0  0  0  0  0  0  0  0  0  0  0
   -4.0404    5.2838  -19.1472 C   0  0  0  0  0  0  0  0  0  0  0  0
   -2.5852    4.8278  -19.2777 C   0  0  0  0  0  0  0  0  0  0  0  0
   -1.7405    6.1015  -19.2663 C   0  0  0  0  0  0  0  0  0  0  0  0
   -2.7006    7.2656  -19.5034 C   0  0  0  0  0  0  0  0  0  0  0  0
   -4.0431    6.6374  -19.8579 C   0  0  0  0  0  0  0  0  0  0  0  0
   -7.9258    5.6899  -10.9591 C   0  0  0  0  0  0  0  0  0  0  0  0
   -8.2006    5.6241   -9.5851 C   0  0  0  0  0  0  0  0  0  0  0  0
   -8.3554    4.3721   -9.0286 C   0  0  0  0  0  0  0  0  0  0  0  0
   -8.7095    3.9725   -7.6543 C   0  0  0  0  0  0  0  0  0  0  0  0
   -8.8923    4.7491   -6.7359 O   0  0  0  0  0  0  0  0  0  0  0  0
  1  2  1  0
  2  3  1  0
  3  4  1  0
  4  5  1  0
  5  6  1  0
  6  7  1  0
  7  8  2  0
  8  9  1  0
  9 10  1  0
 10 11  1  0
 11 12  2  0
 11 13  1  0
 13 14  2  0
 14 15  1  0
 15 16  1  0
 15 17  2  0
 17 18  1  0
 18 19  2  0
 19 20  1  0
 20 21  2  0
 21 22  1  0
 22 23  1  0
 23 24  1  0
 24 25  1  0
 25 26  1  0
 26 27  1  0
  9 28  2  0
 28 29  1  0
 29 30  2  0
 30 31  1  0
 31 32  2  0
 31  5  1  0
 30  7  1  0
 19 13  1  0
 27 23  1  0
 22 18  1  0
M  END
>  <name>  (306) 
P116100

>  <alias>  (306) 
None

>  <smina_score_min>  (306) 
-7.962

>  <exports>  (306) 
['/opt/xchem-fragalysis-2/maxwin/BulkDock/OUTPUTS/openbind_xx01zvns2b_c2_elabs_1LOUTNY.sdf', '/opt/xchem-fragalysis-2/maxwin/BulkDock/OUTPUTS/openbind_xx01zvns2b_c2_elabs_1LSYIIV.sdf']

>  <tags>  (306) 
syndirella_placed,openbind_xx01zvns2b_c2_elabs,openbind_xx01zvns2b_c2_elabs_scored_6.2plus,syndirella_product,openbind_xx01zvns2b_c2_elabs_scored,openbind_xx01zvns2b_c2_elabs_scored_top80percent,BulkDock Fragalysis export

>  <subsites>  (306) 
1 - Z4590/B/203/1

>  <smiles>  (306) 
COCCN1Cc2cc(NC(=O)c3cc(C)nc4c3cnn4C3CCCC3)ccc2C1=O

>  <HIPPO Pose ID>  (306) 
116100

>  <energy_score>  (306) 
-28.418601

>  <inchikey>  (306) 
PMQKJBLITFSDGD-UHFFFAOYSA-N

>  <gnina_score_min>  (306) 
6.318

>  <gnina_score>  (306) 
6.185

>  <ref_mols>  (306) 
Z3556a

>  <HIPPO Compound ID>  (306) 
179308

>  <distance_score>  (306) 
0.63482

>  <rmsd(smina/fragmenstein)>  (306) 
2.138

>  <ref_pdb>  (306) 
Z3556a

>  <inspiration_score>  (306) 
None

$$$$
P116103
     RDKit          3D

 32 35  0  0  0  0  0  0  0  0999 V2000
   -8.1355    4.9811   -2.7667 C   0  0  0  0  0  0  0  0  0  0  0  0
   -8.5952    4.8537   -4.2134 C   0  0  0  0  0  0  0  0  0  0  0  0
   -8.7528    3.3910   -4.6221 C   0  0  0  0  0  0  0  0  0  0  0  0
   -9.5627    3.0821   -5.8932 C   0  0  0  0  0  0  0  0  0  0  0  0
   -8.9239    3.4709   -7.1348 N   0  0  0  0  0  0  0  0  0  0  0  0
   -8.8928    2.5883   -8.3150 C   0  0  0  0  0  0  0  0  0  0  0  0
   -8.5148    3.5298   -9.4230 C   0  0  0  0  0  0  0  0  0  0  0  0
   -8.2960    3.3334  -10.7842 C   0  0  0  0  0  0  0  0  0  0  0  0
   -8.0160    4.4635  -11.5768 C   0  0  0  0  0  0  0  0  0  0  0  0
   -7.7971    4.3665  -12.9522 N   0  0  0  0  0  0  0  0  0  0  0  0
   -7.3374    5.4339  -13.9744 C   0  0  0  0  0  0  0  0  0  0  0  0
   -7.1443    6.5788  -13.8393 O   0  0  0  0  0  0  0  0  0  0  0  0
   -7.1587    4.9106  -15.3318 C   0  0  0  0  0  0  0  0  0  0  0  0
   -8.2583    4.4536  -16.0609 C   0  0  0  0  0  0  0  0  0  0  0  0
   -8.1228    4.2848  -17.4369 C   0  0  0  0  0  0  0  0  0  0  0  0
   -9.3107    3.8695  -18.2561 C   0  0  0  0  0  0  0  0  0  0  0  0
   -6.9751    4.4992  -18.1189 N   0  0  0  0  0  0  0  0  0  0  0  0
   -5.9442    4.9071  -17.3602 C   0  0  0  0  0  0  0  0  0  0  0  0
   -5.9425    5.1243  -15.9957 C   0  0  0  0  0  0  0  0  0  0  0  0
   -4.6215    5.5617  -15.7056 C   0  0  0  0  0  0  0  0  0  0  0  0
   -4.0481    5.9429  -14.3903 C   0  0  0  0  0  0  0  0  0  0  0  0
   -3.8547    5.6107  -16.8081 N   0  0  0  0  0  0  0  0  0  0  0  0
   -4.6932    5.2403  -17.7998 N   0  0  0  0  0  0  0  0  0  0  0  0
   -4.3038    5.3236  -19.1877 C   0  0  0  0  0  0  0  0  0  0  0  0
   -2.8438    5.0432  -19.4456 C   0  0  0  0  0  0  0  0  0  0  0  0
   -2.1301    6.1993  -19.3943 F   0  0  0  0  0  0  0  0  0  0  0  0
   -2.7199    4.5921  -20.7288 F   0  0  0  0  0  0  0  0  0  0  0  0
   -7.9625    5.7499  -11.0011 C   0  0  0  0  0  0  0  0  0  0  0  0
   -8.1848    5.9423   -9.6492 C   0  0  0  0  0  0  0  0  0  0  0  0
   -8.4530    4.8202   -8.9033 C   0  0  0  0  0  0  0  0  0  0  0  0
   -8.8028    4.7948   -7.4954 C   0  0  0  0  0  0  0  0  0  0  0  0
   -9.0051    5.8066   -6.8510 O   0  0  0  0  0  0  0  0  0  0  0  0
  1  2  1  0
  2  3  1  0
  3  4  1  0
  4  5  1  0
  5  6  1  0
  6  7  1  0
  7  8  2  0
  8  9  1  0
  9 10  1  0
 10 11  1  0
 11 12  2  0
 11 13  1  0
 13 14  2  0
 14 15  1  0
 15 16  1  0
 15 17  2  0
 17 18  1  0
 18 19  2  0
 19 20  1  0
 20 21  1  0
 20 22  2  0
 22 23  1  0
 23 24  1  0
 24 25  1  0
 25 26  1  0
 25 27  1  0
  9 28  2  0
 28 29  1  0
 29 30  2  0
 30 31  1  0
 31 32  2  0
 31  5  1  0
 30  7  1  0
 19 13  1  0
 23 18  1  0
M  END
>  <name>  (307) 
P116103

>  <alias>  (307) 
None

>  <smina_score_min>  (307) 
-7.926

>  <exports>  (307) 
['/opt/xchem-fragalysis-2/maxwin/BulkDock/OUTPUTS/openbind_xx01zvns2b_c2_elabs_1LOUTNY.sdf', '/opt/xchem-fragalysis-2/maxwin/BulkDock/OUTPUTS/openbind_xx01zvns2b_c2_elabs_1LSYIIV.sdf']

>  <tags>  (307) 
syndirella_placed,openbind_xx01zvns2b_c2_elabs,openbind_xx01zvns2b_c2_elabs_scored_6.2plus,syndirella_product,openbind_xx01zvns2b_c2_elabs_scored,openbind_xx01zvns2b_c2_elabs_scored_top80percent,BulkDock Fragalysis export

>  <subsites>  (307) 
1 - Z4590/B/203/1

>  <smiles>  (307) 
CCCCN1Cc2cc(NC(=O)c3cc(C)nc4c3c(C)nn4CC(F)F)ccc2C1=O

>  <HIPPO Pose ID>  (307) 
116103

>  <energy_score>  (307) 
-51.283994

>  <inchikey>  (307) 
AYQOHLUUPNIKHZ-UHFFFAOYSA-N

>  <gnina_score_min>  (307) 
6.224

>  <gnina_score>  (307) 
6.243

>  <ref_mols>  (307) 
Z3556a

>  <HIPPO Compound ID>  (307) 
179313

>  <distance_score>  (307) 
0.619641

>  <rmsd(smina/fragmenstein)>  (307) 
0.421

>  <ref_pdb>  (307) 
Z3556a

>  <inspiration_score>  (307) 
None

$$$$
P116114
     RDKit          3D

 32 35  0  0  0  0  0  0  0  0999 V2000
  -11.3911    1.8242   -5.5402 C   0  0  0  0  0  0  0  0  0  0  0  0
  -10.6179    2.9661   -5.8605 O   0  0  0  0  0  0  0  0  0  0  0  0
   -9.2657    2.5755   -6.0973 C   0  0  0  0  0  0  0  0  0  0  0  0
   -8.8716    3.1673   -7.3274 N   0  0  0  0  0  0  0  0  0  0  0  0
   -8.4466    4.4485   -7.4456 C   0  0  0  0  0  0  0  0  0  0  0  0
   -8.2063    5.2856   -6.5950 O   0  0  0  0  0  0  0  0  0  0  0  0
   -8.2800    4.6735   -8.8738 C   0  0  0  0  0  0  0  0  0  0  0  0
   -7.9163    5.8204   -9.5340 C   0  0  0  0  0  0  0  0  0  0  0  0
   -7.7918    5.7282  -10.9181 C   0  0  0  0  0  0  0  0  0  0  0  0
   -8.0073    4.5087  -11.6036 C   0  0  0  0  0  0  0  0  0  0  0  0
   -7.7374    4.4497  -12.9678 N   0  0  0  0  0  0  0  0  0  0  0  0
   -7.3119    5.5575  -13.9541 C   0  0  0  0  0  0  0  0  0  0  0  0
   -7.0460    6.6784  -13.7645 O   0  0  0  0  0  0  0  0  0  0  0  0
   -7.1322    5.0601  -15.3243 C   0  0  0  0  0  0  0  0  0  0  0  0
   -8.2029    4.5755  -16.0708 C   0  0  0  0  0  0  0  0  0  0  0  0
   -8.0190    4.3855  -17.4371 C   0  0  0  0  0  0  0  0  0  0  0  0
   -9.1732    3.9171  -18.2786 C   0  0  0  0  0  0  0  0  0  0  0  0
   -6.8611    4.6341  -18.0912 N   0  0  0  0  0  0  0  0  0  0  0  0
   -5.8432    5.0561  -17.3187 C   0  0  0  0  0  0  0  0  0  0  0  0
   -5.8928    5.2612  -15.9500 C   0  0  0  0  0  0  0  0  0  0  0  0
   -4.5831    5.6658  -15.5909 C   0  0  0  0  0  0  0  0  0  0  0  0
   -4.0476    5.9908  -14.2453 C   0  0  0  0  0  0  0  0  0  0  0  0
   -3.7761    5.7394  -16.6545 N   0  0  0  0  0  0  0  0  0  0  0  0
   -4.5761    5.4239  -17.7105 N   0  0  0  0  0  0  0  0  0  0  0  0
   -4.0401    5.6448  -19.0648 C   0  0  0  0  0  0  0  0  0  0  0  0
   -4.9778    5.1976  -20.2027 C   0  0  0  0  0  0  0  0  0  0  0  0
   -2.6860    4.9197  -19.2181 C   0  0  0  0  0  0  0  0  0  0  0  0
   -3.8031    7.1617  -19.2568 C   0  0  0  0  0  0  0  0  0  0  0  0
   -8.4145    3.3662  -10.9113 C   0  0  0  0  0  0  0  0  0  0  0  0
   -8.5540    3.4912   -9.5401 C   0  0  0  0  0  0  0  0  0  0  0  0
   -8.9919    2.5359   -8.5297 C   0  0  0  0  0  0  0  0  0  0  0  0
   -9.4222    1.4310   -8.7794 O   0  0  0  0  0  0  0  0  0  0  0  0
  1  2  1  0
  2  3  1  0
  3  4  1  0
  4  5  1  0
  5  6  2  0
  5  7  1  0
  7  8  2  0
  8  9  1  0
  9 10  2  0
 10 11  1  0
 11 12  1  0
 12 13  2  0
 12 14  1  0
 14 15  2  0
 15 16  1  0
 16 17  1  0
 16 18  2  0
 18 19  1  0
 19 20  2  0
 20 21  1  0
 21 22  1  0
 21 23  2  0
 23 24  1  0
 24 25  1  0
 25 26  1  0
 25 27  1  0
 25 28  1  0
 10 29  1  0
 29 30  2  0
 30 31  1  0
 31 32  2  0
 31  4  1  0
 30  7  1  0
 20 14  1  0
 24 19  1  0
M  END
>  <name>  (308) 
P116114

>  <alias>  (308) 
None

>  <smina_score_min>  (308) 
-8.695

>  <exports>  (308) 
['/opt/xchem-fragalysis-2/maxwin/BulkDock/OUTPUTS/openbind_xx01zvns2b_c2_elabs_1LOUTNY.sdf', '/opt/xchem-fragalysis-2/maxwin/BulkDock/OUTPUTS/openbind_xx01zvns2b_c2_elabs_1LSYIIV.sdf']

>  <tags>  (308) 
syndirella_placed,openbind_xx01zvns2b_c2_elabs,openbind_xx01zvns2b_c2_elabs_scored_6.2plus,syndirella_product,openbind_xx01zvns2b_c2_elabs_scored,openbind_xx01zvns2b_c2_elabs_scored_top80percent,BulkDock Fragalysis export

>  <subsites>  (308) 
1 - Z4590/B/203/1

>  <smiles>  (308) 
COCN1C(=O)c2ccc(NC(=O)c3cc(C)nc4c3c(C)nn4C(C)(C)C)cc2C1=O

>  <HIPPO Pose ID>  (308) 
116114

>  <energy_score>  (308) 
-34.533865

>  <inchikey>  (308) 
HLHCZZAKVAIDSC-UHFFFAOYSA-N

>  <gnina_score_min>  (308) 
6.213

>  <gnina_score>  (308) 
6.243

>  <ref_mols>  (308) 
Z3556a

>  <HIPPO Compound ID>  (308) 
179328

>  <distance_score>  (308) 
0.596004

>  <rmsd(smina/fragmenstein)>  (308) 
0.469

>  <ref_pdb>  (308) 
Z3556a

>  <inspiration_score>  (308) 
None

$$$$
P116115
     RDKit          3D

 32 35  0  0  0  0  0  0  0  0999 V2000
   -9.1608    3.9033  -18.3881 C   0  0  0  0  0  0  0  0  0  0  0  0
   -8.0149    4.3501  -17.5246 C   0  0  0  0  0  0  0  0  0  0  0  0
   -8.2164    4.4666  -16.1521 C   0  0  0  0  0  0  0  0  0  0  0  0
   -7.1642    4.9344  -15.3709 C   0  0  0  0  0  0  0  0  0  0  0  0
   -7.4035    5.4331  -14.0137 C   0  0  0  0  0  0  0  0  0  0  0  0
   -7.2154    6.5727  -13.8409 O   0  0  0  0  0  0  0  0  0  0  0  0
   -7.8484    4.3323  -13.0288 N   0  0  0  0  0  0  0  0  0  0  0  0
   -8.0569    4.3801  -11.6525 C   0  0  0  0  0  0  0  0  0  0  0  0
   -7.9122    5.6206  -11.0002 C   0  0  0  0  0  0  0  0  0  0  0  0
   -8.0543    5.7333   -9.6262 C   0  0  0  0  0  0  0  0  0  0  0  0
   -8.3719    4.5900   -8.9324 C   0  0  0  0  0  0  0  0  0  0  0  0
   -8.5552    3.3536   -9.5591 C   0  0  0  0  0  0  0  0  0  0  0  0
   -8.3803    3.2255  -10.9288 C   0  0  0  0  0  0  0  0  0  0  0  0
   -8.9329    2.3453   -8.5059 C   0  0  0  0  0  0  0  0  0  0  0  0
   -9.3412    3.1986   -7.3596 N   0  0  0  0  0  0  0  0  0  0  0  0
   -9.2355    2.5738   -6.0319 C   0  0  0  0  0  0  0  0  0  0  0  0
   -9.2695    3.5482   -4.8295 C   0  0  0  0  0  0  0  0  0  0  0  0
  -10.2802    4.4453   -4.9514 F   0  0  0  0  0  0  0  0  0  0  0  0
   -9.4308    2.9494   -3.6343 F   0  0  0  0  0  0  0  0  0  0  0  0
   -8.1193    4.2688   -4.7384 F   0  0  0  0  0  0  0  0  0  0  0  0
   -8.5637    4.4379   -7.4703 C   0  0  0  0  0  0  0  0  0  0  0  0
   -5.9274    5.2008  -15.9727 C   0  0  0  0  0  0  0  0  0  0  0  0
   -4.6360    5.6346  -15.5838 C   0  0  0  0  0  0  0  0  0  0  0  0
   -4.1197    5.8838  -14.2149 C   0  0  0  0  0  0  0  0  0  0  0  0
   -3.8382    5.8301  -16.6405 N   0  0  0  0  0  0  0  0  0  0  0  0
   -4.6409    5.5997  -17.7121 N   0  0  0  0  0  0  0  0  0  0  0  0
   -4.2546    6.1210  -19.0347 C   0  0  0  0  0  0  0  0  0  0  0  0
   -4.1601    5.0057  -20.0768 C   0  0  0  0  0  0  0  0  0  0  0  0
   -5.2809    7.1771  -19.5023 C   0  0  0  0  0  0  0  0  0  0  0  0
   -2.8727    6.8241  -18.9943 C   0  0  0  0  0  0  0  0  0  0  0  0
   -5.8698    5.0890  -17.3511 C   0  0  0  0  0  0  0  0  0  0  0  0
   -6.8625    4.6755  -18.1634 N   0  0  0  0  0  0  0  0  0  0  0  0
  1  2  1  0
  2  3  2  0
  3  4  1  0
  4  5  1  0
  5  6  2  0
  5  7  1  0
  7  8  1  0
  8  9  2  0
  9 10  1  0
 10 11  2  0
 11 12  1  0
 12 13  2  0
 12 14  1  0
 14 15  1  0
 15 16  1  0
 16 17  1  0
 17 18  1  0
 17 19  1  0
 17 20  1  0
 15 21  1  0
  4 22  2  0
 22 23  1  0
 23 24  1  0
 23 25  2  0
 25 26  1  0
 26 27  1  0
 27 28  1  0
 27 29  1  0
 27 30  1  0
 26 31  1  0
 31 32  2  0
 32  2  1  0
 13  8  1  0
 31 22  1  0
 21 11  1  0
M  END
>  <name>  (309) 
P116115

>  <alias>  (309) 
None

>  <smina_score_min>  (309) 
-8.826

>  <exports>  (309) 
['/opt/xchem-fragalysis-2/maxwin/BulkDock/OUTPUTS/openbind_xx01zvns2b_c2_elabs_1LOUTNY.sdf', '/opt/xchem-fragalysis-2/maxwin/BulkDock/OUTPUTS/openbind_xx01zvns2b_c2_elabs_1LSYIIV.sdf']

>  <tags>  (309) 
syndirella_placed,openbind_xx01zvns2b_c2_elabs,openbind_xx01zvns2b_c2_elabs_scored_6.2plus,syndirella_product,openbind_xx01zvns2b_c2_elabs_scored,openbind_xx01zvns2b_c2_elabs_scored_top80percent,BulkDock Fragalysis export

>  <subsites>  (309) 
1 - Z4590/B/203/1

>  <smiles>  (309) 
Cc1cc(C(=O)Nc2ccc3c(c2)CN(CC(F)(F)F)C3)c2c(C)nn(C(C)(C)C)c2n1

>  <HIPPO Pose ID>  (309) 
116115

>  <energy_score>  (309) 
-53.130578

>  <inchikey>  (309) 
AKRMLZYYKGQHGJ-UHFFFAOYSA-N

>  <gnina_score_min>  (309) 
6.428

>  <gnina_score>  (309) 
6.371

>  <ref_mols>  (309) 
Z3556a

>  <HIPPO Compound ID>  (309) 
179331

>  <distance_score>  (309) 
0.611906

>  <rmsd(smina/fragmenstein)>  (309) 
0.994

>  <ref_pdb>  (309) 
Z3556a

>  <inspiration_score>  (309) 
None

$$$$
P116116
     RDKit          3D

 32 35  0  0  0  0  0  0  0  0999 V2000
  -10.6762   -1.9091   -7.1341 C   0  0  0  0  0  0  0  0  0  0  0  0
  -10.4292   -0.5167   -6.8789 O   0  0  0  0  0  0  0  0  0  0  0  0
   -9.8681    0.5748   -7.5399 C   0  0  0  0  0  0  0  0  0  0  0  0
   -9.4519    1.5190   -6.4253 C   0  0  0  0  0  0  0  0  0  0  0  0
   -9.5100    3.0029   -6.6963 C   0  0  0  0  0  0  0  0  0  0  0  0
   -8.4572    3.4481   -7.5825 N   0  0  0  0  0  0  0  0  0  0  0  0
   -8.4335    4.9028   -7.7542 C   0  0  0  0  0  0  0  0  0  0  0  0
   -8.2147    5.1112   -9.2107 C   0  0  0  0  0  0  0  0  0  0  0  0
   -8.0444    6.2828   -9.9077 C   0  0  0  0  0  0  0  0  0  0  0  0
   -7.8485    6.1883  -11.2845 C   0  0  0  0  0  0  0  0  0  0  0  0
   -7.8339    4.9392  -11.9324 C   0  0  0  0  0  0  0  0  0  0  0  0
   -7.5571    4.8404  -13.2809 N   0  0  0  0  0  0  0  0  0  0  0  0
   -7.2252    5.9232  -14.3099 C   0  0  0  0  0  0  0  0  0  0  0  0
   -7.0554    7.0664  -14.1747 O   0  0  0  0  0  0  0  0  0  0  0  0
   -7.0155    5.3267  -15.6264 C   0  0  0  0  0  0  0  0  0  0  0  0
   -8.0726    4.7677  -16.3355 C   0  0  0  0  0  0  0  0  0  0  0  0
   -7.8572    4.4434  -17.6677 C   0  0  0  0  0  0  0  0  0  0  0  0
   -9.0040    3.9055  -18.4762 C   0  0  0  0  0  0  0  0  0  0  0  0
   -6.6837    4.6355  -18.3194 N   0  0  0  0  0  0  0  0  0  0  0  0
   -5.6801    5.1199  -17.5620 C   0  0  0  0  0  0  0  0  0  0  0  0
   -5.7594    5.4478  -16.2207 C   0  0  0  0  0  0  0  0  0  0  0  0
   -4.4573    5.8580  -15.8526 C   0  0  0  0  0  0  0  0  0  0  0  0
   -3.9614    6.2871  -14.5214 C   0  0  0  0  0  0  0  0  0  0  0  0
   -3.6209    5.8296  -16.8948 N   0  0  0  0  0  0  0  0  0  0  0  0
   -4.4040    5.4596  -17.9470 N   0  0  0  0  0  0  0  0  0  0  0  0
   -3.8448    5.6135  -19.2994 C   0  0  0  0  0  0  0  0  0  0  0  0
   -4.7943    5.1877  -20.4377 C   0  0  0  0  0  0  0  0  0  0  0  0
   -3.5296    7.1112  -19.5363 C   0  0  0  0  0  0  0  0  0  0  0  0
   -2.5255    4.8210  -19.4116 C   0  0  0  0  0  0  0  0  0  0  0  0
   -8.0448    3.7669  -11.2283 C   0  0  0  0  0  0  0  0  0  0  0  0
   -8.2187    3.8864   -9.8692 C   0  0  0  0  0  0  0  0  0  0  0  0
   -8.4996    2.8057   -8.9058 C   0  0  0  0  0  0  0  0  0  0  0  0
  1  2  1  0
  2  3  1  0
  3  4  1  0
  4  5  1  0
  5  6  1  0
  6  7  1  0
  7  8  1  0
  8  9  2  0
  9 10  1  0
 10 11  2  0
 11 12  1  0
 12 13  1  0
 13 14  2  0
 13 15  1  0
 15 16  2  0
 16 17  1  0
 17 18  1  0
 17 19  2  0
 19 20  1  0
 20 21  2  0
 21 22  1  0
 22 23  1  0
 22 24  2  0
 24 25  1  0
 25 26  1  0
 26 27  1  0
 26 28  1  0
 26 29  1  0
 11 30  1  0
 30 31  2  0
 31 32  1  0
 32  6  1  0
 31  8  1  0
 21 15  1  0
 25 20  1  0
M  END
>  <name>  (310) 
P116116

>  <alias>  (310) 
None

>  <smina_score_min>  (310) 
-7.322

>  <exports>  (310) 
['/opt/xchem-fragalysis-2/maxwin/BulkDock/OUTPUTS/openbind_xx01zvns2b_c2_elabs_1LOUTNY.sdf', '/opt/xchem-fragalysis-2/maxwin/BulkDock/OUTPUTS/openbind_xx01zvns2b_c2_elabs_1LSYIIV.sdf']

>  <tags>  (310) 
syndirella_placed,openbind_xx01zvns2b_c2_elabs,openbind_xx01zvns2b_c2_elabs_scored_6.2plus,syndirella_product,openbind_xx01zvns2b_c2_elabs_scored,openbind_xx01zvns2b_c2_elabs_scored_top80percent,BulkDock Fragalysis export

>  <subsites>  (310) 
1 - Z4590/B/203/1

>  <smiles>  (310) 
COCCCN1Cc2ccc(NC(=O)c3cc(C)nc4c3c(C)nn4C(C)(C)C)cc2C1

>  <HIPPO Pose ID>  (310) 
116116

>  <energy_score>  (310) 
-9.461406

>  <inchikey>  (310) 
RUNXBJCOUPKQQH-UHFFFAOYSA-N

>  <gnina_score_min>  (310) 
6.275

>  <gnina_score>  (310) 
6.32

>  <ref_mols>  (310) 
Z3556a

>  <HIPPO Compound ID>  (310) 
179332

>  <distance_score>  (310) 
0.996894

>  <rmsd(smina/fragmenstein)>  (310) 
2.227

>  <ref_pdb>  (310) 
Z3556a

>  <inspiration_score>  (310) 
None

$$$$
P116117
     RDKit          3D

 32 35  0  0  0  0  0  0  0  0999 V2000
   -5.8900    1.9943  -11.4883 C   0  0  0  0  0  0  0  0  0  0  0  0
   -7.0760    1.8438  -10.7191 O   0  0  0  0  0  0  0  0  0  0  0  0
   -6.7725    1.4888   -9.3612 C   0  0  0  0  0  0  0  0  0  0  0  0
   -8.0142    1.4237   -8.4188 C   0  0  0  0  0  0  0  0  0  0  0  0
   -8.7152    2.6776   -8.2724 N   0  0  0  0  0  0  0  0  0  0  0  0
   -9.5522    2.8798   -9.3963 C   0  0  0  0  0  0  0  0  0  0  0  0
   -8.8866    3.9805  -10.0944 C   0  0  0  0  0  0  0  0  0  0  0  0
   -8.7851    4.1557  -11.4486 C   0  0  0  0  0  0  0  0  0  0  0  0
   -7.9842    5.1780  -11.9134 C   0  0  0  0  0  0  0  0  0  0  0  0
   -7.7564    5.1512  -13.2750 N   0  0  0  0  0  0  0  0  0  0  0  0
   -6.9599    6.1032  -14.1688 C   0  0  0  0  0  0  0  0  0  0  0  0
   -6.4295    7.1073  -13.9176 O   0  0  0  0  0  0  0  0  0  0  0  0
   -6.8385    5.5208  -15.5248 C   0  0  0  0  0  0  0  0  0  0  0  0
   -7.9349    4.9811  -16.2103 C   0  0  0  0  0  0  0  0  0  0  0  0
   -7.7718    4.5829  -17.5333 C   0  0  0  0  0  0  0  0  0  0  0  0
   -8.9415    4.0062  -18.2851 C   0  0  0  0  0  0  0  0  0  0  0  0
   -6.6175    4.7231  -18.2196 N   0  0  0  0  0  0  0  0  0  0  0  0
   -5.5778    5.1917  -17.5037 C   0  0  0  0  0  0  0  0  0  0  0  0
   -5.5969    5.5554  -16.1668 C   0  0  0  0  0  0  0  0  0  0  0  0
   -4.2516    5.8698  -15.8512 C   0  0  0  0  0  0  0  0  0  0  0  0
   -3.6547    6.2440  -14.5445 C   0  0  0  0  0  0  0  0  0  0  0  0
   -3.4624    5.7935  -16.9273 N   0  0  0  0  0  0  0  0  0  0  0  0
   -4.3048    5.4664  -17.9430 N   0  0  0  0  0  0  0  0  0  0  0  0
   -3.7986    5.5977  -19.3184 C   0  0  0  0  0  0  0  0  0  0  0  0
   -4.7988    5.1737  -20.4132 C   0  0  0  0  0  0  0  0  0  0  0  0
   -2.4947    4.7868  -19.4759 C   0  0  0  0  0  0  0  0  0  0  0  0
   -3.4730    7.0886  -19.5816 C   0  0  0  0  0  0  0  0  0  0  0  0
   -7.3461    6.0513  -11.0182 C   0  0  0  0  0  0  0  0  0  0  0  0
   -7.3824    5.7942   -9.6353 C   0  0  0  0  0  0  0  0  0  0  0  0
   -8.1255    4.7124   -9.2106 C   0  0  0  0  0  0  0  0  0  0  0  0
   -8.0139    3.8751   -7.9971 C   0  0  0  0  0  0  0  0  0  0  0  0
   -7.3106    4.1771   -7.0493 O   0  0  0  0  0  0  0  0  0  0  0  0
  1  2  1  0
  2  3  1  0
  3  4  1  0
  4  5  1  0
  5  6  1  0
  6  7  1  0
  7  8  2  0
  8  9  1  0
  9 10  1  0
 10 11  1  0
 11 12  2  0
 11 13  1  0
 13 14  2  0
 14 15  1  0
 15 16  1  0
 15 17  2  0
 17 18  1  0
 18 19  2  0
 19 20  1  0
 20 21  1  0
 20 22  2  0
 22 23  1  0
 23 24  1  0
 24 25  1  0
 24 26  1  0
 24 27  1  0
  9 28  2  0
 28 29  1  0
 29 30  2  0
 30 31  1  0
 31 32  2  0
 31  5  1  0
 30  7  1  0
 19 13  1  0
 23 18  1  0
M  END
>  <name>  (311) 
P116117

>  <alias>  (311) 
None

>  <smina_score_min>  (311) 
-6.179

>  <exports>  (311) 
['/opt/xchem-fragalysis-2/maxwin/BulkDock/OUTPUTS/openbind_xx01zvns2b_c2_elabs_1LOUTNY.sdf', '/opt/xchem-fragalysis-2/maxwin/BulkDock/OUTPUTS/openbind_xx01zvns2b_c2_elabs_1LSYIIV.sdf']

>  <tags>  (311) 
syndirella_placed,openbind_xx01zvns2b_c2_elabs,openbind_xx01zvns2b_c2_elabs_scored_6.2plus,syndirella_product,openbind_xx01zvns2b_c2_elabs_scored,openbind_xx01zvns2b_c2_elabs_scored_top80percent,BulkDock Fragalysis export

>  <subsites>  (311) 
1 - Z4590/B/203/1

>  <smiles>  (311) 
COCCN1Cc2cc(NC(=O)c3cc(C)nc4c3c(C)nn4C(C)(C)C)ccc2C1=O

>  <HIPPO Pose ID>  (311) 
116117

>  <energy_score>  (311) 
-4.632425

>  <inchikey>  (311) 
IMDQFHXIRZQIMI-UHFFFAOYSA-N

>  <gnina_score_min>  (311) 
6.273

>  <gnina_score>  (311) 
6.192

>  <ref_mols>  (311) 
Z3556a

>  <HIPPO Compound ID>  (311) 
179333

>  <distance_score>  (311) 
1.035994

>  <rmsd(smina/fragmenstein)>  (311) 
1.486

>  <ref_pdb>  (311) 
Z3556a

>  <inspiration_score>  (311) 
None

$$$$
P116119
     RDKit          3D

 32 35  0  0  0  0  0  0  0  0999 V2000
   -9.8619    3.7909   -4.4969 C   0  0  0  0  0  0  0  0  0  0  0  0
  -10.9933    2.9433   -4.4742 O   0  0  0  0  0  0  0  0  0  0  0  0
  -11.3665    2.2234   -5.6423 C   0  0  0  0  0  0  0  0  0  0  0  0
  -10.2401    1.7343   -6.5238 C   0  0  0  0  0  0  0  0  0  0  0  0
   -9.8599    2.8573   -7.4627 C   0  0  0  0  0  0  0  0  0  0  0  0
   -8.4312    2.8190   -7.6977 N   0  0  0  0  0  0  0  0  0  0  0  0
   -7.8870    4.1841   -7.7974 C   0  0  0  0  0  0  0  0  0  0  0  0
   -7.9733    4.5143   -9.2407 C   0  0  0  0  0  0  0  0  0  0  0  0
   -7.8811    5.7412   -9.8539 C   0  0  0  0  0  0  0  0  0  0  0  0
   -7.8730    5.7526  -11.2419 C   0  0  0  0  0  0  0  0  0  0  0  0
   -7.9524    4.5523  -11.9722 C   0  0  0  0  0  0  0  0  0  0  0  0
   -7.7802    4.5629  -13.3432 N   0  0  0  0  0  0  0  0  0  0  0  0
   -7.3433    5.6940  -14.2850 C   0  0  0  0  0  0  0  0  0  0  0  0
   -7.1323    6.8187  -14.0678 O   0  0  0  0  0  0  0  0  0  0  0  0
   -7.1426    5.1812  -15.6360 C   0  0  0  0  0  0  0  0  0  0  0  0
   -8.2166    4.6536  -16.3477 C   0  0  0  0  0  0  0  0  0  0  0  0
   -8.0319    4.3617  -17.6911 C   0  0  0  0  0  0  0  0  0  0  0  0
   -9.2030    3.8758  -18.4921 C   0  0  0  0  0  0  0  0  0  0  0  0
   -6.8598    4.5192  -18.3490 N   0  0  0  0  0  0  0  0  0  0  0  0
   -5.8518    4.9857  -17.5915 C   0  0  0  0  0  0  0  0  0  0  0  0
   -5.8984    5.3212  -16.2535 C   0  0  0  0  0  0  0  0  0  0  0  0
   -4.5803    5.7416  -15.9362 C   0  0  0  0  0  0  0  0  0  0  0  0
   -4.0494    6.1979  -14.6274 C   0  0  0  0  0  0  0  0  0  0  0  0
   -3.7728    5.7010  -17.0088 N   0  0  0  0  0  0  0  0  0  0  0  0
   -4.5822    5.2777  -18.0051 N   0  0  0  0  0  0  0  0  0  0  0  0
   -4.1495    5.2989  -19.3815 C   0  0  0  0  0  0  0  0  0  0  0  0
   -2.7051    4.9130  -19.5857 C   0  0  0  0  0  0  0  0  0  0  0  0
   -1.9167    6.0201  -19.5514 F   0  0  0  0  0  0  0  0  0  0  0  0
   -2.5769    4.4084  -20.8483 F   0  0  0  0  0  0  0  0  0  0  0  0
   -8.1121    3.3235  -11.3382 C   0  0  0  0  0  0  0  0  0  0  0  0
   -8.1113    3.3270   -9.9645 C   0  0  0  0  0  0  0  0  0  0  0  0
   -8.1830    2.1774   -9.0141 C   0  0  0  0  0  0  0  0  0  0  0  0
  1  2  1  0
  2  3  1  0
  3  4  1  0
  4  5  1  0
  5  6  1  0
  6  7  1  0
  7  8  1  0
  8  9  2  0
  9 10  1  0
 10 11  2  0
 11 12  1  0
 12 13  1  0
 13 14  2  0
 13 15  1  0
 15 16  2  0
 16 17  1  0
 17 18  1  0
 17 19  2  0
 19 20  1  0
 20 21  2  0
 21 22  1  0
 22 23  1  0
 22 24  2  0
 24 25  1  0
 25 26  1  0
 26 27  1  0
 27 28  1  0
 27 29  1  0
 11 30  1  0
 30 31  2  0
 31 32  1  0
 32  6  1  0
 31  8  1  0
 21 15  1  0
 25 20  1  0
M  END
>  <name>  (312) 
P116119

>  <alias>  (312) 
None

>  <smina_score_min>  (312) 
-7.546

>  <exports>  (312) 
['/opt/xchem-fragalysis-2/maxwin/BulkDock/OUTPUTS/openbind_xx01zvns2b_c2_elabs_1LOUTNY.sdf', '/opt/xchem-fragalysis-2/maxwin/BulkDock/OUTPUTS/openbind_xx01zvns2b_c2_elabs_1LSYIIV.sdf']

>  <tags>  (312) 
syndirella_placed,openbind_xx01zvns2b_c2_elabs,openbind_xx01zvns2b_c2_elabs_scored_6.2plus,syndirella_product,openbind_xx01zvns2b_c2_elabs_scored,openbind_xx01zvns2b_c2_elabs_scored_top80percent,BulkDock Fragalysis export

>  <subsites>  (312) 
1 - Z4590/B/203/1

>  <smiles>  (312) 
COCCCN1Cc2ccc(NC(=O)c3cc(C)nc4c3c(C)nn4CC(F)F)cc2C1

>  <HIPPO Pose ID>  (312) 
116119

>  <energy_score>  (312) 
-21.601767

>  <inchikey>  (312) 
HHCQNCSQUWRIGW-UHFFFAOYSA-N

>  <gnina_score_min>  (312) 
6.258

>  <gnina_score>  (312) 
6.272

>  <ref_mols>  (312) 
Z3556a

>  <HIPPO Compound ID>  (312) 
179337

>  <distance_score>  (312) 
0.805744

>  <rmsd(smina/fragmenstein)>  (312) 
0.747

>  <ref_pdb>  (312) 
Z3556a

>  <inspiration_score>  (312) 
None

$$$$
P116134
     RDKit          3D

 32 35  0  0  0  0  0  0  0  0999 V2000
   -8.9792    3.8556   -3.8567 C   0  0  0  0  0  0  0  0  0  0  0  0
  -10.2214    3.7402   -4.7230 C   0  0  0  0  0  0  0  0  0  0  0  0
  -10.3788    2.4851   -5.5738 C   0  0  0  0  0  0  0  0  0  0  0  0
   -9.1609    2.0817   -6.3873 C   0  0  0  0  0  0  0  0  0  0  0  0
   -9.0033    2.8289   -7.6053 N   0  0  0  0  0  0  0  0  0  0  0  0
   -8.7823    2.1211   -8.8544 C   0  0  0  0  0  0  0  0  0  0  0  0
   -8.4827    3.2335   -9.7945 C   0  0  0  0  0  0  0  0  0  0  0  0
   -8.3089    3.2190  -11.1637 C   0  0  0  0  0  0  0  0  0  0  0  0
   -8.0333    4.4353  -11.7949 C   0  0  0  0  0  0  0  0  0  0  0  0
   -7.8245    4.4495  -13.1669 N   0  0  0  0  0  0  0  0  0  0  0  0
   -7.3892    5.5929  -14.0999 C   0  0  0  0  0  0  0  0  0  0  0  0
   -7.2109    6.7236  -13.8780 O   0  0  0  0  0  0  0  0  0  0  0  0
   -7.1499    5.1124  -15.4622 C   0  0  0  0  0  0  0  0  0  0  0  0
   -8.1944    4.6047  -16.2285 C   0  0  0  0  0  0  0  0  0  0  0  0
   -7.9687    4.3898  -17.5817 C   0  0  0  0  0  0  0  0  0  0  0  0
   -9.1025    3.9019  -18.4383 C   0  0  0  0  0  0  0  0  0  0  0  0
   -6.7932    4.6379  -18.2066 N   0  0  0  0  0  0  0  0  0  0  0  0
   -5.8035    5.0837  -17.4096 C   0  0  0  0  0  0  0  0  0  0  0  0
   -5.8955    5.3143  -16.0474 C   0  0  0  0  0  0  0  0  0  0  0  0
   -4.6021    5.7327  -15.6530 C   0  0  0  0  0  0  0  0  0  0  0  0
   -4.1192    6.0896  -14.2956 C   0  0  0  0  0  0  0  0  0  0  0  0
   -3.7603    5.7844  -16.6915 N   0  0  0  0  0  0  0  0  0  0  0  0
   -4.5289    5.4569  -17.7672 N   0  0  0  0  0  0  0  0  0  0  0  0
   -3.9556    5.6647  -19.1077 C   0  0  0  0  0  0  0  0  0  0  0  0
   -4.8753    5.2412  -20.2702 C   0  0  0  0  0  0  0  0  0  0  0  0
   -2.6171    4.9058  -19.2275 C   0  0  0  0  0  0  0  0  0  0  0  0
   -3.6766    7.1753  -19.2948 C   0  0  0  0  0  0  0  0  0  0  0  0
   -7.9400    5.6337  -11.0578 C   0  0  0  0  0  0  0  0  0  0  0  0
   -8.0992    5.6367   -9.6768 C   0  0  0  0  0  0  0  0  0  0  0  0
   -8.3648    4.4245   -9.0830 C   0  0  0  0  0  0  0  0  0  0  0  0
   -8.5871    4.1427   -7.6704 C   0  0  0  0  0  0  0  0  0  0  0  0
   -8.3978    4.9639   -6.7934 O   0  0  0  0  0  0  0  0  0  0  0  0
  1  2  1  0
  2  3  1  0
  3  4  1  0
  4  5  1  0
  5  6  1  0
  6  7  1  0
  7  8  2  0
  8  9  1  0
  9 10  1  0
 10 11  1  0
 11 12  2  0
 11 13  1  0
 13 14  2  0
 14 15  1  0
 15 16  1  0
 15 17  2  0
 17 18  1  0
 18 19  2  0
 19 20  1  0
 20 21  1  0
 20 22  2  0
 22 23  1  0
 23 24  1  0
 24 25  1  0
 24 26  1  0
 24 27  1  0
  9 28  2  0
 28 29  1  0
 29 30  2  0
 30 31  1  0
 31 32  2  0
 31  5  1  0
 30  7  1  0
 19 13  1  0
 23 18  1  0
M  END
>  <name>  (313) 
P116134

>  <alias>  (313) 
None

>  <smina_score_min>  (313) 
-8.2

>  <exports>  (313) 
['/opt/xchem-fragalysis-2/maxwin/BulkDock/OUTPUTS/openbind_xx01zvns2b_c2_elabs_1LOUTNY.sdf', '/opt/xchem-fragalysis-2/maxwin/BulkDock/OUTPUTS/openbind_xx01zvns2b_c2_elabs_1LSYIIV.sdf']

>  <tags>  (313) 
syndirella_placed,openbind_xx01zvns2b_c2_elabs,openbind_xx01zvns2b_c2_elabs_scored_6.2plus,syndirella_product,openbind_xx01zvns2b_c2_elabs_scored,openbind_xx01zvns2b_c2_elabs_scored_top80percent,BulkDock Fragalysis export

>  <subsites>  (313) 
1 - Z4590/B/203/1

>  <smiles>  (313) 
CCCCN1Cc2cc(NC(=O)c3cc(C)nc4c3c(C)nn4C(C)(C)C)ccc2C1=O

>  <HIPPO Pose ID>  (313) 
116134

>  <energy_score>  (313) 
-50.223719

>  <inchikey>  (313) 
ZAJBQEFCJKBBAR-UHFFFAOYSA-N

>  <gnina_score_min>  (313) 
6.383

>  <gnina_score>  (313) 
6.368

>  <ref_mols>  (313) 
Z3556a

>  <HIPPO Compound ID>  (313) 
179352

>  <distance_score>  (313) 
0.604159

>  <rmsd(smina/fragmenstein)>  (313) 
0.284

>  <ref_pdb>  (313) 
Z3556a

>  <inspiration_score>  (313) 
None

$$$$
P116144
     RDKit          3D

 32 37  0  0  0  0  0  0  0  0999 V2000
   -3.8201    6.2539  -13.9321 C   0  0  0  0  0  0  0  0  0  0  0  0
   -4.2132    5.8214  -15.2966 C   0  0  0  0  0  0  0  0  0  0  0  0
   -3.2860    5.7352  -16.2653 N   0  0  0  0  0  0  0  0  0  0  0  0
   -3.9900    5.3438  -17.3491 N   0  0  0  0  0  0  0  0  0  0  0  0
   -3.3321    5.1743  -18.6193 C   0  0  0  0  0  0  0  0  0  0  0  0
   -5.3130    5.1518  -17.0954 C   0  0  0  0  0  0  0  0  0  0  0  0
   -6.2354    4.7555  -17.9769 N   0  0  0  0  0  0  0  0  0  0  0  0
   -7.4817    4.6139  -17.4844 C   0  0  0  0  0  0  0  0  0  0  0  0
   -8.4801    4.0880  -18.4705 C   0  0  0  0  0  0  0  0  0  0  0  0
   -9.9534    4.3372  -18.3838 C   0  0  0  0  0  0  0  0  0  0  0  0
   -9.3951    2.9949  -18.0230 C   0  0  0  0  0  0  0  0  0  0  0  0
   -7.8054    4.9015  -16.1522 C   0  0  0  0  0  0  0  0  0  0  0  0
   -6.8113    5.3493  -15.2861 C   0  0  0  0  0  0  0  0  0  0  0  0
   -7.1518    5.8584  -13.9561 C   0  0  0  0  0  0  0  0  0  0  0  0
   -7.0300    7.0060  -13.7777 O   0  0  0  0  0  0  0  0  0  0  0  0
   -7.5999    4.7366  -12.9918 N   0  0  0  0  0  0  0  0  0  0  0  0
   -7.8899    4.7766  -11.6296 C   0  0  0  0  0  0  0  0  0  0  0  0
   -7.7438    5.9983  -10.9333 C   0  0  0  0  0  0  0  0  0  0  0  0
   -7.8727    6.0693   -9.5476 C   0  0  0  0  0  0  0  0  0  0  0  0
   -8.1561    4.8957   -8.8949 C   0  0  0  0  0  0  0  0  0  0  0  0
   -8.3661    3.7074   -9.5708 C   0  0  0  0  0  0  0  0  0  0  0  0
   -8.2425    3.6078  -10.9469 C   0  0  0  0  0  0  0  0  0  0  0  0
   -8.6770    2.7041   -8.5610 C   0  0  0  0  0  0  0  0  0  0  0  0
   -9.0441    1.5814   -8.8318 O   0  0  0  0  0  0  0  0  0  0  0  0
   -8.5336    3.3182   -7.3453 N   0  0  0  0  0  0  0  0  0  0  0  0
   -8.7569    2.6695   -6.0807 C   0  0  0  0  0  0  0  0  0  0  0  0
  -10.1277    3.0145   -5.5859 C   0  0  0  0  0  0  0  0  0  0  0  0
  -11.0933    1.9283   -5.1913 C   0  0  0  0  0  0  0  0  0  0  0  0
  -11.2613    2.6342   -6.4795 C   0  0  0  0  0  0  0  0  0  0  0  0
   -8.2452    4.6385   -7.4656 C   0  0  0  0  0  0  0  0  0  0  0  0
   -8.0633    5.4814   -6.6062 O   0  0  0  0  0  0  0  0  0  0  0  0
   -5.5026    5.4561  -15.7627 C   0  0  0  0  0  0  0  0  0  0  0  0
  1  2  1  0
  2  3  2  0
  3  4  1  0
  4  5  1  0
  4  6  1  0
  6  7  2  0
  7  8  1  0
  8  9  1  0
  9 10  1  0
 10 11  1  0
  8 12  2  0
 12 13  1  0
 13 14  1  0
 14 15  2  0
 14 16  1  0
 16 17  1  0
 17 18  2  0
 18 19  1  0
 19 20  2  0
 20 21  1  0
 21 22  2  0
 21 23  1  0
 23 24  2  0
 23 25  1  0
 25 26  1  0
 26 27  1  0
 27 28  1  0
 28 29  1  0
 25 30  1  0
 30 31  2  0
 13 32  2  0
 32  2  1  0
 32  6  1  0
 11  9  1  0
 22 17  1  0
 29 27  1  0
 30 20  1  0
M  END
>  <name>  (314) 
P116144

>  <alias>  (314) 
None

>  <smina_score_min>  (314) 
-8.219

>  <exports>  (314) 
['/opt/xchem-fragalysis-2/maxwin/BulkDock/OUTPUTS/openbind_xx01zvns2b_c2_elabs_1LOUTNY.sdf', '/opt/xchem-fragalysis-2/maxwin/BulkDock/OUTPUTS/openbind_xx01zvns2b_c2_elabs_1LSYIIV.sdf']

>  <tags>  (314) 
syndirella_placed,openbind_xx01zvns2b_c2_elabs,openbind_xx01zvns2b_c2_elabs_scored_6.2plus,syndirella_product,openbind_xx01zvns2b_c2_elabs_scored,openbind_xx01zvns2b_c2_elabs_scored_top80percent,BulkDock Fragalysis export

>  <subsites>  (314) 
1 - Z4590/B/203/1

>  <smiles>  (314) 
Cc1nn(C)c2nc(C3CC3)cc(C(=O)Nc3ccc4c(c3)C(=O)N(CC3CC3)C4=O)c12

>  <HIPPO Pose ID>  (314) 
116144

>  <energy_score>  (314) 
-43.913349

>  <inchikey>  (314) 
NXVHEGINZGVWPL-UHFFFAOYSA-N

>  <gnina_score_min>  (314) 
6.331

>  <gnina_score>  (314) 
6.143

>  <ref_mols>  (314) 
Z3556a

>  <HIPPO Compound ID>  (314) 
179369

>  <distance_score>  (314) 
0.895272

>  <rmsd(smina/fragmenstein)>  (314) 
0.696

>  <ref_pdb>  (314) 
Z3556a

>  <inspiration_score>  (314) 
None

$$$$
P116150
     RDKit          3D

 32 36  0  0  0  0  0  0  0  0999 V2000
  -11.4273    2.1502   -5.7155 C   0  0  0  0  0  0  0  0  0  0  0  0
  -10.3191    2.8756   -5.2110 O   0  0  0  0  0  0  0  0  0  0  0  0
   -9.1223    2.4964   -5.8885 C   0  0  0  0  0  0  0  0  0  0  0  0
   -8.9767    3.2208   -7.1054 N   0  0  0  0  0  0  0  0  0  0  0  0
   -8.4122    4.4544   -7.1590 C   0  0  0  0  0  0  0  0  0  0  0  0
   -8.0829    5.2173   -6.2689 O   0  0  0  0  0  0  0  0  0  0  0  0
   -8.1319    4.7001   -8.5638 C   0  0  0  0  0  0  0  0  0  0  0  0
   -7.5477    5.7992   -9.1454 C   0  0  0  0  0  0  0  0  0  0  0  0
   -7.2471    5.7009  -10.4997 C   0  0  0  0  0  0  0  0  0  0  0  0
   -7.5247    4.5232  -11.2251 C   0  0  0  0  0  0  0  0  0  0  0  0
   -7.1940    4.4574  -12.5702 N   0  0  0  0  0  0  0  0  0  0  0  0
   -6.4584    5.4748  -13.4754 C   0  0  0  0  0  0  0  0  0  0  0  0
   -5.9487    6.4924  -13.2120 O   0  0  0  0  0  0  0  0  0  0  0  0
   -6.5268    5.0911  -14.8978 C   0  0  0  0  0  0  0  0  0  0  0  0
   -7.7545    4.8410  -15.5296 C   0  0  0  0  0  0  0  0  0  0  0  0
   -9.2090    5.0020  -14.6129 Cl  0  0  0  0  0  0  0  0  0  0  0  0
   -7.8072    4.6046  -16.9147 C   0  0  0  0  0  0  0  0  0  0  0  0
   -9.1246    4.3808  -17.6314 C   0  0  0  0  0  0  0  0  0  0  0  0
   -9.5788    3.0766  -18.1920 C   0  0  0  0  0  0  0  0  0  0  0  0
   -9.1145    4.1412  -19.1155 C   0  0  0  0  0  0  0  0  0  0  0  0
   -6.6968    4.6867  -17.6930 N   0  0  0  0  0  0  0  0  0  0  0  0
   -5.5560    4.9784  -17.0512 C   0  0  0  0  0  0  0  0  0  0  0  0
   -5.3805    5.1703  -15.6930 C   0  0  0  0  0  0  0  0  0  0  0  0
   -3.9903    5.4233  -15.5425 C   0  0  0  0  0  0  0  0  0  0  0  0
   -3.2176    5.6746  -14.2996 C   0  0  0  0  0  0  0  0  0  0  0  0
   -3.3533    5.4235  -16.7226 N   0  0  0  0  0  0  0  0  0  0  0  0
   -4.3286    5.1662  -17.6173 N   0  0  0  0  0  0  0  0  0  0  0  0
   -4.0149    5.1525  -19.0221 C   0  0  0  0  0  0  0  0  0  0  0  0
   -8.1657    3.4358  -10.6223 C   0  0  0  0  0  0  0  0  0  0  0  0
   -8.4546    3.5606   -9.2785 C   0  0  0  0  0  0  0  0  0  0  0  0
   -9.0230    2.6126   -8.3284 C   0  0  0  0  0  0  0  0  0  0  0  0
   -9.4282    1.5087   -8.6236 O   0  0  0  0  0  0  0  0  0  0  0  0
  1  2  1  0
  2  3  1  0
  3  4  1  0
  4  5  1  0
  5  6  2  0
  5  7  1  0
  7  8  2  0
  8  9  1  0
  9 10  2  0
 10 11  1  0
 11 12  1  0
 12 13  2  0
 12 14  1  0
 14 15  2  0
 15 16  1  0
 15 17  1  0
 17 18  1  0
 18 19  1  0
 19 20  1  0
 17 21  2  0
 21 22  1  0
 22 23  2  0
 23 24  1  0
 24 25  1  0
 24 26  2  0
 26 27  1  0
 27 28  1  0
 10 29  1  0
 29 30  2  0
 30 31  1  0
 31 32  2  0
 31  4  1  0
 30  7  1  0
 23 14  1  0
 20 18  1  0
 27 22  1  0
M  END
>  <name>  (315) 
P116150

>  <alias>  (315) 
None

>  <smina_score_min>  (315) 
-7.294

>  <exports>  (315) 
['/opt/xchem-fragalysis-2/maxwin/BulkDock/OUTPUTS/openbind_xx01zvns2b_c2_elabs_1LOUTNY.sdf', '/opt/xchem-fragalysis-2/maxwin/BulkDock/OUTPUTS/openbind_xx01zvns2b_c2_elabs_1LSYIIV.sdf']

>  <tags>  (315) 
syndirella_placed,openbind_xx01zvns2b_c2_elabs,openbind_xx01zvns2b_c2_elabs_scored_6.2plus,syndirella_product,openbind_xx01zvns2b_c2_elabs_scored,openbind_xx01zvns2b_c2_elabs_scored_top80percent,BulkDock Fragalysis export

>  <subsites>  (315) 
1 - Z4590/B/203/1

>  <smiles>  (315) 
COCN1C(=O)c2ccc(NC(=O)c3c(Cl)c(C4CC4)nc4c3c(C)nn4C)cc2C1=O

>  <HIPPO Pose ID>  (315) 
116150

>  <energy_score>  (315) 
-40.315653

>  <inchikey>  (315) 
YTOJZMGXYRWIMW-UHFFFAOYSA-N

>  <gnina_score_min>  (315) 
6.208

>  <gnina_score>  (315) 
5.852

>  <ref_mols>  (315) 
Z3556a

>  <HIPPO Compound ID>  (315) 
179375

>  <distance_score>  (315) 
0.805804

>  <rmsd(smina/fragmenstein)>  (315) 
0.611

>  <ref_pdb>  (315) 
Z3556a

>  <inspiration_score>  (315) 
None

$$$$
P116155
     RDKit          3D

 32 36  0  0  0  0  0  0  0  0999 V2000
  -10.2870    4.3608  -18.3868 C   0  0  0  0  0  0  0  0  0  0  0  0
   -9.0659    3.5288  -18.0890 C   0  0  0  0  0  0  0  0  0  0  0  0
   -7.9931    4.2503  -17.3196 C   0  0  0  0  0  0  0  0  0  0  0  0
   -8.1650    4.5214  -15.9664 C   0  0  0  0  0  0  0  0  0  0  0  0
   -7.1038    5.0842  -15.2574 C   0  0  0  0  0  0  0  0  0  0  0  0
   -7.2874    5.5365  -13.8699 C   0  0  0  0  0  0  0  0  0  0  0  0
   -7.1319    6.6717  -13.6462 O   0  0  0  0  0  0  0  0  0  0  0  0
   -7.7140    4.3815  -12.9374 N   0  0  0  0  0  0  0  0  0  0  0  0
   -7.9392    4.3645  -11.5612 C   0  0  0  0  0  0  0  0  0  0  0  0
   -7.9289    5.5646  -10.8226 C   0  0  0  0  0  0  0  0  0  0  0  0
   -8.1944    5.5681   -9.4520 C   0  0  0  0  0  0  0  0  0  0  0  0
   -8.4644    4.3536   -8.8579 C   0  0  0  0  0  0  0  0  0  0  0  0
   -8.4714    3.1544   -9.5679 C   0  0  0  0  0  0  0  0  0  0  0  0
   -8.2041    3.1426  -10.9285 C   0  0  0  0  0  0  0  0  0  0  0  0
   -8.8438    2.0340   -8.6552 C   0  0  0  0  0  0  0  0  0  0  0  0
   -9.1174    2.7271   -7.4079 N   0  0  0  0  0  0  0  0  0  0  0  0
   -9.8497    2.0942   -6.3455 C   0  0  0  0  0  0  0  0  0  0  0  0
   -8.8924    4.0845   -7.4806 C   0  0  0  0  0  0  0  0  0  0  0  0
   -9.0698    4.9410   -6.6338 O   0  0  0  0  0  0  0  0  0  0  0  0
   -5.8857    5.3021  -15.9152 C   0  0  0  0  0  0  0  0  0  0  0  0
   -4.5746    5.7280  -15.5986 C   0  0  0  0  0  0  0  0  0  0  0  0
   -4.0322    6.1315  -14.2762 C   0  0  0  0  0  0  0  0  0  0  0  0
   -3.7671    5.7036  -16.6655 N   0  0  0  0  0  0  0  0  0  0  0  0
   -4.5718    5.3423  -17.7093 N   0  0  0  0  0  0  0  0  0  0  0  0
   -4.0581    5.3351  -19.0396 C   0  0  0  0  0  0  0  0  0  0  0  0
   -4.9090    5.2936  -20.1534 C   0  0  0  0  0  0  0  0  0  0  0  0
   -4.3803    5.3100  -21.4470 C   0  0  0  0  0  0  0  0  0  0  0  0
   -3.0014    5.3454  -21.6394 C   0  0  0  0  0  0  0  0  0  0  0  0
   -2.1486    5.3826  -20.5378 C   0  0  0  0  0  0  0  0  0  0  0  0
   -2.6714    5.3921  -19.2424 C   0  0  0  0  0  0  0  0  0  0  0  0
   -5.8538    5.0336  -17.2746 C   0  0  0  0  0  0  0  0  0  0  0  0
   -6.8720    4.5373  -18.0073 N   0  0  0  0  0  0  0  0  0  0  0  0
  1  2  1  0
  2  3  1  0
  3  4  2  0
  4  5  1  0
  5  6  1  0
  6  7  2  0
  6  8  1  0
  8  9  1  0
  9 10  2  0
 10 11  1  0
 11 12  2  0
 12 13  1  0
 13 14  2  0
 13 15  1  0
 15 16  1  0
 16 17  1  0
 16 18  1  0
 18 19  2  0
  5 20  2  0
 20 21  1  0
 21 22  1  0
 21 23  2  0
 23 24  1  0
 24 25  1  0
 25 26  2  0
 26 27  1  0
 27 28  2  0
 28 29  1  0
 29 30  2  0
 24 31  1  0
 31 32  2  0
 32  3  1  0
 14  9  1  0
 31 20  1  0
 18 12  1  0
 30 25  1  0
M  END
>  <name>  (316) 
P116155

>  <alias>  (316) 
None

>  <smina_score_min>  (316) 
-9.089

>  <exports>  (316) 
['/opt/xchem-fragalysis-2/maxwin/BulkDock/OUTPUTS/openbind_xx01zvns2b_c2_elabs_1LOUTNY.sdf', '/opt/xchem-fragalysis-2/maxwin/BulkDock/OUTPUTS/openbind_xx01zvns2b_c2_elabs_1LSYIIV.sdf']

>  <tags>  (316) 
syndirella_placed,openbind_xx01zvns2b_c2_elabs,openbind_xx01zvns2b_c2_elabs_scored_6.2plus,syndirella_product,openbind_xx01zvns2b_c2_elabs_scored,openbind_xx01zvns2b_c2_elabs_scored_top80percent,BulkDock Fragalysis export

>  <subsites>  (316) 
1 - Z4590/B/203/1

>  <smiles>  (316) 
CCc1cc(C(=O)Nc2ccc3c(c2)CN(C)C3=O)c2c(C)nn(-c3ccccc3)c2n1

>  <HIPPO Pose ID>  (316) 
116155

>  <energy_score>  (316) 
-56.592805

>  <inchikey>  (316) 
WUHLSDLTFKDMHE-UHFFFAOYSA-N

>  <gnina_score_min>  (316) 
6.482

>  <gnina_score>  (316) 
6.459

>  <ref_mols>  (316) 
Z3556a

>  <HIPPO Compound ID>  (316) 
179381

>  <distance_score>  (316) 
0.480494

>  <rmsd(smina/fragmenstein)>  (316) 
0.403

>  <ref_pdb>  (316) 
Z3556a

>  <inspiration_score>  (316) 
None

$$$$
P116157
     RDKit          3D

 32 36  0  0  0  0  0  0  0  0999 V2000
   -3.1827    5.8545  -14.4380 C   0  0  0  0  0  0  0  0  0  0  0  0
   -3.9512    5.5467  -15.6703 C   0  0  0  0  0  0  0  0  0  0  0  0
   -3.3217    5.5112  -16.8534 N   0  0  0  0  0  0  0  0  0  0  0  0
   -4.3007    5.2107  -17.7325 N   0  0  0  0  0  0  0  0  0  0  0  0
   -3.9950    5.1494  -19.1370 C   0  0  0  0  0  0  0  0  0  0  0  0
   -5.5242    5.0358  -17.1544 C   0  0  0  0  0  0  0  0  0  0  0  0
   -6.6712    4.7171  -17.7748 N   0  0  0  0  0  0  0  0  0  0  0  0
   -7.7723    4.6375  -16.9801 C   0  0  0  0  0  0  0  0  0  0  0  0
   -9.1011    4.3848  -17.6666 C   0  0  0  0  0  0  0  0  0  0  0  0
   -9.5534    3.0710  -18.2053 C   0  0  0  0  0  0  0  0  0  0  0  0
   -9.1144    4.1304  -19.1467 C   0  0  0  0  0  0  0  0  0  0  0  0
   -7.7041    4.9020  -15.6030 C   0  0  0  0  0  0  0  0  0  0  0  0
   -9.1445    5.0059  -14.6513 Cl  0  0  0  0  0  0  0  0  0  0  0  0
   -6.4702    5.1997  -15.0043 C   0  0  0  0  0  0  0  0  0  0  0  0
   -6.3927    5.5594  -13.5822 C   0  0  0  0  0  0  0  0  0  0  0  0
   -6.0160    6.6198  -13.2769 O   0  0  0  0  0  0  0  0  0  0  0  0
   -6.9546    4.4124  -12.7206 N   0  0  0  0  0  0  0  0  0  0  0  0
   -7.2483    4.3640  -11.3705 C   0  0  0  0  0  0  0  0  0  0  0  0
   -7.1616    5.5093  -10.5619 C   0  0  0  0  0  0  0  0  0  0  0  0
   -7.5950    5.4780   -9.2370 C   0  0  0  0  0  0  0  0  0  0  0  0
   -8.1145    4.2925   -8.7634 C   0  0  0  0  0  0  0  0  0  0  0  0
   -8.1946    3.1559   -9.5713 C   0  0  0  0  0  0  0  0  0  0  0  0
   -7.7617    3.1670  -10.8762 C   0  0  0  0  0  0  0  0  0  0  0  0
   -8.8172    2.0431   -8.8024 C   0  0  0  0  0  0  0  0  0  0  0  0
   -9.4612    2.7474   -7.6856 N   0  0  0  0  0  0  0  0  0  0  0  0
   -9.6511    1.9002   -6.5143 C   0  0  0  0  0  0  0  0  0  0  0  0
  -10.4040    2.5814   -5.3693 C   0  0  0  0  0  0  0  0  0  0  0  0
  -11.2451    3.5359   -5.8360 F   0  0  0  0  0  0  0  0  0  0  0  0
  -11.1799    1.6955   -4.6987 F   0  0  0  0  0  0  0  0  0  0  0  0
   -9.5857    3.1920   -4.4841 F   0  0  0  0  0  0  0  0  0  0  0  0
   -8.6747    3.9644   -7.4219 C   0  0  0  0  0  0  0  0  0  0  0  0
   -5.3360    5.2742  -15.8063 C   0  0  0  0  0  0  0  0  0  0  0  0
  1  2  1  0
  2  3  2  0
  3  4  1  0
  4  5  1  0
  4  6  1  0
  6  7  2  0
  7  8  1  0
  8  9  1  0
  9 10  1  0
 10 11  1  0
  8 12  2  0
 12 13  1  0
 12 14  1  0
 14 15  1  0
 15 16  2  0
 15 17  1  0
 17 18  1  0
 18 19  2  0
 19 20  1  0
 20 21  2  0
 21 22  1  0
 22 23  2  0
 22 24  1  0
 24 25  1  0
 25 26  1  0
 26 27  1  0
 27 28  1  0
 27 29  1  0
 27 30  1  0
 25 31  1  0
 14 32  2  0
 32  2  1  0
 32  6  1  0
 11  9  1  0
 23 18  1  0
 31 21  1  0
M  END
>  <name>  (317) 
P116157

>  <alias>  (317) 
None

>  <smina_score_min>  (317) 
-8.144

>  <exports>  (317) 
['/opt/xchem-fragalysis-2/maxwin/BulkDock/OUTPUTS/openbind_xx01zvns2b_c2_elabs_1LOUTNY.sdf', '/opt/xchem-fragalysis-2/maxwin/BulkDock/OUTPUTS/openbind_xx01zvns2b_c2_elabs_1LSYIIV.sdf']

>  <tags>  (317) 
syndirella_placed,openbind_xx01zvns2b_c2_elabs,openbind_xx01zvns2b_c2_elabs_scored_6.2plus,syndirella_product,openbind_xx01zvns2b_c2_elabs_scored,openbind_xx01zvns2b_c2_elabs_scored_top80percent,BulkDock Fragalysis export

>  <subsites>  (317) 
1 - Z4590/B/203/1

>  <smiles>  (317) 
Cc1nn(C)c2nc(C3CC3)c(Cl)c(C(=O)Nc3ccc4c(c3)CN(CC(F)(F)F)C4)c12

>  <HIPPO Pose ID>  (317) 
116157

>  <energy_score>  (317) 
-48.46178

>  <inchikey>  (317) 
WXKCOHKLDFAPKK-UHFFFAOYSA-N

>  <gnina_score_min>  (317) 
6.275

>  <gnina_score>  (317) 
6.037

>  <ref_mols>  (317) 
Z3556a

>  <HIPPO Compound ID>  (317) 
179383

>  <distance_score>  (317) 
0.824715

>  <rmsd(smina/fragmenstein)>  (317) 
0.567

>  <ref_pdb>  (317) 
Z3556a

>  <inspiration_score>  (317) 
None

$$$$
P116160
     RDKit          3D

 32 35  0  0  0  0  0  0  0  0999 V2000
   -9.0402    3.9140  -18.6119 C   0  0  0  0  0  0  0  0  0  0  0  0
   -7.8887    4.3976  -17.7808 C   0  0  0  0  0  0  0  0  0  0  0  0
   -8.0989    4.6109  -16.4276 C   0  0  0  0  0  0  0  0  0  0  0  0
   -7.0394    5.1104  -15.6806 C   0  0  0  0  0  0  0  0  0  0  0  0
   -7.2729    5.6299  -14.3398 C   0  0  0  0  0  0  0  0  0  0  0  0
   -7.0538    6.7553  -14.1343 O   0  0  0  0  0  0  0  0  0  0  0  0
   -7.7873    4.5296  -13.4036 N   0  0  0  0  0  0  0  0  0  0  0  0
   -8.0423    4.5528  -12.0472 C   0  0  0  0  0  0  0  0  0  0  0  0
   -7.9407    5.7718  -11.3502 C   0  0  0  0  0  0  0  0  0  0  0  0
   -8.1016    5.8181   -9.9775 C   0  0  0  0  0  0  0  0  0  0  0  0
   -8.3841    4.6299   -9.3498 C   0  0  0  0  0  0  0  0  0  0  0  0
   -8.5315    3.4241  -10.0364 C   0  0  0  0  0  0  0  0  0  0  0  0
   -8.3509    3.3611  -11.3965 C   0  0  0  0  0  0  0  0  0  0  0  0
   -8.8413    2.3403   -9.0578 C   0  0  0  0  0  0  0  0  0  0  0  0
   -9.2067    3.0869   -7.8313 N   0  0  0  0  0  0  0  0  0  0  0  0
   -8.9327    2.3115   -6.6410 C   0  0  0  0  0  0  0  0  0  0  0  0
   -8.6489    3.1712   -5.3984 C   0  0  0  0  0  0  0  0  0  0  0  0
   -9.9052    3.7052   -4.7159 C   0  0  0  0  0  0  0  0  0  0  0  0
   -9.5415    4.0529   -3.2683 C   0  0  0  0  0  0  0  0  0  0  0  0
  -11.0588    2.7117   -4.8412 C   0  0  0  0  0  0  0  0  0  0  0  0
   -8.5085    4.3724   -7.9009 C   0  0  0  0  0  0  0  0  0  0  0  0
   -5.7913    5.3052  -16.2721 C   0  0  0  0  0  0  0  0  0  0  0  0
   -4.4929    5.7173  -15.8917 C   0  0  0  0  0  0  0  0  0  0  0  0
   -3.9788    6.0229  -14.5340 C   0  0  0  0  0  0  0  0  0  0  0  0
   -3.6851    5.8387  -16.9511 N   0  0  0  0  0  0  0  0  0  0  0  0
   -4.4877    5.5735  -18.0174 N   0  0  0  0  0  0  0  0  0  0  0  0
   -4.1140    6.0814  -19.3485 C   0  0  0  0  0  0  0  0  0  0  0  0
   -2.6953    6.7086  -19.3460 C   0  0  0  0  0  0  0  0  0  0  0  0
   -4.1116    4.9829  -20.4160 C   0  0  0  0  0  0  0  0  0  0  0  0
   -5.0989    7.1961  -19.7695 C   0  0  0  0  0  0  0  0  0  0  0  0
   -5.7275    5.1041  -17.6379 C   0  0  0  0  0  0  0  0  0  0  0  0
   -6.7257    4.6614  -18.4277 N   0  0  0  0  0  0  0  0  0  0  0  0
  1  2  1  0
  2  3  2  0
  3  4  1  0
  4  5  1  0
  5  6  2  0
  5  7  1  0
  7  8  1  0
  8  9  2  0
  9 10  1  0
 10 11  2  0
 11 12  1  0
 12 13  2  0
 12 14  1  0
 14 15  1  0
 15 16  1  0
 16 17  1  0
 17 18  1  0
 18 19  1  0
 18 20  1  0
 15 21  1  0
  4 22  2  0
 22 23  1  0
 23 24  1  0
 23 25  2  0
 25 26  1  0
 26 27  1  0
 27 28  1  0
 27 29  1  0
 27 30  1  0
 26 31  1  0
 31 32  2  0
 32  2  1  0
 13  8  1  0
 31 22  1  0
 21 11  1  0
M  END
>  <name>  (318) 
P116160

>  <alias>  (318) 
None

>  <smina_score_min>  (318) 
-8.337

>  <exports>  (318) 
['/opt/xchem-fragalysis-2/maxwin/BulkDock/OUTPUTS/openbind_xx01zvns2b_c2_elabs_1LOUTNY.sdf', '/opt/xchem-fragalysis-2/maxwin/BulkDock/OUTPUTS/openbind_xx01zvns2b_c2_elabs_1LSYIIV.sdf']

>  <tags>  (318) 
syndirella_placed,openbind_xx01zvns2b_c2_elabs,openbind_xx01zvns2b_c2_elabs_scored_6.2plus,syndirella_product,openbind_xx01zvns2b_c2_elabs_scored,openbind_xx01zvns2b_c2_elabs_scored_top80percent,BulkDock Fragalysis export

>  <subsites>  (318) 
1 - Z4590/B/203/1

>  <smiles>  (318) 
Cc1cc(C(=O)Nc2ccc3c(c2)CN(CCC(C)C)C3)c2c(C)nn(C(C)(C)C)c2n1

>  <HIPPO Pose ID>  (318) 
116160

>  <energy_score>  (318) 
-42.521353

>  <inchikey>  (318) 
UFCUOJLKWNDMRT-UHFFFAOYSA-N

>  <gnina_score_min>  (318) 
6.482

>  <gnina_score>  (318) 
6.396

>  <ref_mols>  (318) 
Z3556a

>  <HIPPO Compound ID>  (318) 
179386

>  <distance_score>  (318) 
0.846407

>  <rmsd(smina/fragmenstein)>  (318) 
0.617

>  <ref_pdb>  (318) 
Z3556a

>  <inspiration_score>  (318) 
None

$$$$
P116165
     RDKit          3D

 32 35  0  0  0  0  0  0  0  0999 V2000
  -10.8257    2.5268   -5.6457 C   0  0  0  0  0  0  0  0  0  0  0  0
   -9.4932    2.1248   -6.2435 C   0  0  0  0  0  0  0  0  0  0  0  0
   -9.1963    2.8439   -7.4493 N   0  0  0  0  0  0  0  0  0  0  0  0
   -8.8393    2.1552   -8.6778 C   0  0  0  0  0  0  0  0  0  0  0  0
   -8.4572    3.2912   -9.5636 C   0  0  0  0  0  0  0  0  0  0  0  0
   -8.1300    3.3030  -10.9061 C   0  0  0  0  0  0  0  0  0  0  0  0
   -7.8005    4.5360  -11.4805 C   0  0  0  0  0  0  0  0  0  0  0  0
   -7.4518    4.5851  -12.8228 N   0  0  0  0  0  0  0  0  0  0  0  0
   -7.1370    5.7891  -13.7319 C   0  0  0  0  0  0  0  0  0  0  0  0
   -7.0455    6.9241  -13.4792 O   0  0  0  0  0  0  0  0  0  0  0  0
   -6.9483    5.3754  -15.1206 C   0  0  0  0  0  0  0  0  0  0  0  0
   -8.0016    4.8077  -15.8316 C   0  0  0  0  0  0  0  0  0  0  0  0
   -7.8254    4.5769  -17.1886 C   0  0  0  0  0  0  0  0  0  0  0  0
   -8.8613    3.7584  -17.9273 C   0  0  0  0  0  0  0  0  0  0  0  0
   -8.3175    3.2288  -19.2358 C   0  0  0  0  0  0  0  0  0  0  0  0
  -10.1918    4.4317  -18.1972 C   0  0  0  0  0  0  0  0  0  0  0  0
   -6.7149    4.9363  -17.8695 N   0  0  0  0  0  0  0  0  0  0  0  0
   -5.6966    5.3911  -17.1252 C   0  0  0  0  0  0  0  0  0  0  0  0
   -5.7307    5.6203  -15.7623 C   0  0  0  0  0  0  0  0  0  0  0  0
   -4.4317    6.0718  -15.4354 C   0  0  0  0  0  0  0  0  0  0  0  0
   -3.8994    6.4635  -14.1062 C   0  0  0  0  0  0  0  0  0  0  0  0
   -3.6355    6.1169  -16.5107 N   0  0  0  0  0  0  0  0  0  0  0  0
   -4.4336    5.7313  -17.5439 N   0  0  0  0  0  0  0  0  0  0  0  0
   -3.8839    5.8024  -18.9094 C   0  0  0  0  0  0  0  0  0  0  0  0
   -2.6005    4.9518  -18.9998 C   0  0  0  0  0  0  0  0  0  0  0  0
   -3.5228    7.2735  -19.2200 C   0  0  0  0  0  0  0  0  0  0  0  0
   -4.8526    5.3397  -20.0153 C   0  0  0  0  0  0  0  0  0  0  0  0
   -7.8058    5.7217  -10.7183 C   0  0  0  0  0  0  0  0  0  0  0  0
   -8.1343    5.7014   -9.3685 C   0  0  0  0  0  0  0  0  0  0  0  0
   -8.4512    4.4770   -8.8280 C   0  0  0  0  0  0  0  0  0  0  0  0
   -8.8618    4.1801   -7.4597 C   0  0  0  0  0  0  0  0  0  0  0  0
   -8.8902    4.9945   -6.5558 O   0  0  0  0  0  0  0  0  0  0  0  0
  1  2  1  0
  2  3  1  0
  3  4  1  0
  4  5  1  0
  5  6  2  0
  6  7  1  0
  7  8  1  0
  8  9  1  0
  9 10  2  0
  9 11  1  0
 11 12  2  0
 12 13  1  0
 13 14  1  0
 14 15  1  0
 14 16  1  0
 13 17  2  0
 17 18  1  0
 18 19  2  0
 19 20  1  0
 20 21  1  0
 20 22  2  0
 22 23  1  0
 23 24  1  0
 24 25  1  0
 24 26  1  0
 24 27  1  0
  7 28  2  0
 28 29  1  0
 29 30  2  0
 30 31  1  0
 31 32  2  0
 31  3  1  0
 30  5  1  0
 19 11  1  0
 23 18  1  0
M  END
>  <name>  (319) 
P116165

>  <alias>  (319) 
None

>  <smina_score_min>  (319) 
-7.527

>  <exports>  (319) 
['/opt/xchem-fragalysis-2/maxwin/BulkDock/OUTPUTS/openbind_xx01zvns2b_c2_elabs_1LOUTNY.sdf', '/opt/xchem-fragalysis-2/maxwin/BulkDock/OUTPUTS/openbind_xx01zvns2b_c2_elabs_1LSYIIV.sdf']

>  <tags>  (319) 
syndirella_placed,openbind_xx01zvns2b_c2_elabs,openbind_xx01zvns2b_c2_elabs_scored_6.2plus,syndirella_product,openbind_xx01zvns2b_c2_elabs_scored,openbind_xx01zvns2b_c2_elabs_scored_top80percent,BulkDock Fragalysis export

>  <subsites>  (319) 
1 - Z4590/B/203/1

>  <smiles>  (319) 
CCN1Cc2cc(NC(=O)c3cc(C(C)C)nc4c3c(C)nn4C(C)(C)C)ccc2C1=O

>  <HIPPO Pose ID>  (319) 
116165

>  <energy_score>  (319) 
-24.664097

>  <inchikey>  (319) 
KBQUNFJEEHNCEE-UHFFFAOYSA-N

>  <gnina_score_min>  (319) 
6.494

>  <gnina_score>  (319) 
6.395

>  <ref_mols>  (319) 
Z3556a

>  <HIPPO Compound ID>  (319) 
179393

>  <distance_score>  (319) 
0.68276

>  <rmsd(smina/fragmenstein)>  (319) 
0.398

>  <ref_pdb>  (319) 
Z3556a

>  <inspiration_score>  (319) 
None

$$$$
P116166
     RDKit          3D

 32 35  0  0  0  0  0  0  0  0999 V2000
   -9.6876    3.6692   -4.5007 C   0  0  0  0  0  0  0  0  0  0  0  0
  -10.4320    2.6399   -5.3409 C   0  0  0  0  0  0  0  0  0  0  0  0
   -9.6001    2.0059   -6.4596 C   0  0  0  0  0  0  0  0  0  0  0  0
   -9.5185    2.8326   -7.6490 N   0  0  0  0  0  0  0  0  0  0  0  0
   -8.7279    4.0639   -7.4993 C   0  0  0  0  0  0  0  0  0  0  0  0
   -8.2661    4.3519   -8.8878 C   0  0  0  0  0  0  0  0  0  0  0  0
   -7.7972    5.5290   -9.4288 C   0  0  0  0  0  0  0  0  0  0  0  0
   -7.4580    5.5265  -10.7801 C   0  0  0  0  0  0  0  0  0  0  0  0
   -7.5907    4.3606  -11.5553 C   0  0  0  0  0  0  0  0  0  0  0  0
   -7.3170    4.3825  -12.9144 N   0  0  0  0  0  0  0  0  0  0  0  0
   -6.7345    5.5016  -13.8010 C   0  0  0  0  0  0  0  0  0  0  0  0
   -6.3212    6.5545  -13.5158 O   0  0  0  0  0  0  0  0  0  0  0  0
   -6.8380    5.1445  -15.2208 C   0  0  0  0  0  0  0  0  0  0  0  0
   -8.0783    4.7833  -15.7389 C   0  0  0  0  0  0  0  0  0  0  0  0
   -8.2226    4.6053  -17.1122 C   0  0  0  0  0  0  0  0  0  0  0  0
   -9.5392    4.0258  -17.5907 C   0  0  0  0  0  0  0  0  0  0  0  0
   -9.3343    2.6443  -18.1160 C   0  0  0  0  0  0  0  0  0  0  0  0
  -10.4229    4.7465  -18.5619 C   0  0  0  0  0  0  0  0  0  0  0  0
   -7.2273    4.8289  -17.9963 N   0  0  0  0  0  0  0  0  0  0  0  0
   -6.0306    5.1320  -17.4438 C   0  0  0  0  0  0  0  0  0  0  0  0
   -5.7587    5.2802  -16.0907 C   0  0  0  0  0  0  0  0  0  0  0  0
   -4.3752    5.5577  -16.0139 C   0  0  0  0  0  0  0  0  0  0  0  0
   -3.5393    5.7680  -14.8063 C   0  0  0  0  0  0  0  0  0  0  0  0
   -3.8167    5.6308  -17.2266 N   0  0  0  0  0  0  0  0  0  0  0  0
   -4.8486    5.4294  -18.0937 N   0  0  0  0  0  0  0  0  0  0  0  0
   -4.6962    5.8639  -19.4935 C   0  0  0  0  0  0  0  0  0  0  0  0
   -5.3224    4.9079  -20.5264 C   0  0  0  0  0  0  0  0  0  0  0  0
   -3.2051    6.0252  -19.8834 C   0  0  0  0  0  0  0  0  0  0  0  0
   -5.3677    7.2482  -19.6361 C   0  0  0  0  0  0  0  0  0  0  0  0
   -8.0567    3.1734  -10.9909 C   0  0  0  0  0  0  0  0  0  0  0  0
   -8.3892    3.1918   -9.6527 C   0  0  0  0  0  0  0  0  0  0  0  0
   -8.9158    2.0984   -8.7839 C   0  0  0  0  0  0  0  0  0  0  0  0
  1  2  1  0
  2  3  1  0
  3  4  1  0
  4  5  1  0
  5  6  1  0
  6  7  2  0
  7  8  1  0
  8  9  2  0
  9 10  1  0
 10 11  1  0
 11 12  2  0
 11 13  1  0
 13 14  2  0
 14 15  1  0
 15 16  1  0
 16 17  1  0
 16 18  1  0
 15 19  2  0
 19 20  1  0
 20 21  2  0
 21 22  1  0
 22 23  1  0
 22 24  2  0
 24 25  1  0
 25 26  1  0
 26 27  1  0
 26 28  1  0
 26 29  1  0
  9 30  1  0
 30 31  2  0
 31 32  1  0
 32  4  1  0
 31  6  1  0
 21 13  1  0
 25 20  1  0
M  END
>  <name>  (320) 
P116166

>  <alias>  (320) 
None

>  <smina_score_min>  (320) 
-7.479

>  <exports>  (320) 
['/opt/xchem-fragalysis-2/maxwin/BulkDock/OUTPUTS/openbind_xx01zvns2b_c2_elabs_1LOUTNY.sdf', '/opt/xchem-fragalysis-2/maxwin/BulkDock/OUTPUTS/openbind_xx01zvns2b_c2_elabs_1LSYIIV.sdf']

>  <tags>  (320) 
syndirella_placed,openbind_xx01zvns2b_c2_elabs,openbind_xx01zvns2b_c2_elabs_scored_6.2plus,syndirella_product,openbind_xx01zvns2b_c2_elabs_scored,openbind_xx01zvns2b_c2_elabs_scored_top80percent,BulkDock Fragalysis export

>  <subsites>  (320) 
1 - Z4590/B/203/1

>  <smiles>  (320) 
CCCN1Cc2ccc(NC(=O)c3cc(C(C)C)nc4c3c(C)nn4C(C)(C)C)cc2C1

>  <HIPPO Pose ID>  (320) 
116166

>  <energy_score>  (320) 
-23.307917

>  <inchikey>  (320) 
QGOXCEKNCPEQBU-UHFFFAOYSA-N

>  <gnina_score_min>  (320) 
6.429

>  <gnina_score>  (320) 
6.392

>  <ref_mols>  (320) 
Z3556a

>  <HIPPO Compound ID>  (320) 
179394

>  <distance_score>  (320) 
0.709956

>  <rmsd(smina/fragmenstein)>  (320) 
0.376

>  <ref_pdb>  (320) 
Z3556a

>  <inspiration_score>  (320) 
None

$$$$
P116168
     RDKit          3D

 32 35  0  0  0  0  0  0  0  0999 V2000
   -4.0245    6.4826  -13.9814 C   0  0  0  0  0  0  0  0  0  0  0  0
   -4.5287    6.0767  -15.3174 C   0  0  0  0  0  0  0  0  0  0  0  0
   -3.7106    6.1183  -16.3771 N   0  0  0  0  0  0  0  0  0  0  0  0
   -4.4870    5.7253  -17.4237 N   0  0  0  0  0  0  0  0  0  0  0  0
   -3.9212    5.8136  -18.7826 C   0  0  0  0  0  0  0  0  0  0  0  0
   -3.5739    7.2916  -19.0760 C   0  0  0  0  0  0  0  0  0  0  0  0
   -4.8704    5.3489  -19.9045 C   0  0  0  0  0  0  0  0  0  0  0  0
   -2.6273    4.9791  -18.8666 C   0  0  0  0  0  0  0  0  0  0  0  0
   -5.7542    5.3761  -17.0248 C   0  0  0  0  0  0  0  0  0  0  0  0
   -6.7535    4.9151  -17.7888 N   0  0  0  0  0  0  0  0  0  0  0  0
   -7.8776    4.5573  -17.1329 C   0  0  0  0  0  0  0  0  0  0  0  0
   -8.8990    3.7504  -17.9046 C   0  0  0  0  0  0  0  0  0  0  0  0
  -10.2222    4.4306  -18.1973 C   0  0  0  0  0  0  0  0  0  0  0  0
   -8.3308    3.2323  -19.2093 C   0  0  0  0  0  0  0  0  0  0  0  0
   -8.0846    4.7948  -15.7793 C   0  0  0  0  0  0  0  0  0  0  0  0
   -7.0544    5.3772  -15.0436 C   0  0  0  0  0  0  0  0  0  0  0  0
   -7.2946    5.8659  -13.6809 C   0  0  0  0  0  0  0  0  0  0  0  0
   -7.1571    7.0096  -13.4916 O   0  0  0  0  0  0  0  0  0  0  0  0
   -7.7490    4.7410  -12.7264 N   0  0  0  0  0  0  0  0  0  0  0  0
   -8.0281    4.7700  -11.3636 C   0  0  0  0  0  0  0  0  0  0  0  0
   -7.9188    5.9776  -10.6512 C   0  0  0  0  0  0  0  0  0  0  0  0
   -8.1222    6.0286   -9.2719 C   0  0  0  0  0  0  0  0  0  0  0  0
   -8.4455    4.8570   -8.6205 C   0  0  0  0  0  0  0  0  0  0  0  0
   -8.5982    3.6598   -9.3385 C   0  0  0  0  0  0  0  0  0  0  0  0
   -8.3850    3.5919  -10.7070 C   0  0  0  0  0  0  0  0  0  0  0  0
   -8.9620    2.5666   -8.3861 C   0  0  0  0  0  0  0  0  0  0  0  0
   -9.3562    3.3030   -7.1656 N   0  0  0  0  0  0  0  0  0  0  0  0
   -9.2937    2.4806   -5.9854 C   0  0  0  0  0  0  0  0  0  0  0  0
   -8.6013    4.5774   -7.1410 C   0  0  0  0  0  0  0  0  0  0  0  0
   -9.3817    5.6331   -6.3401 C   0  0  0  0  0  0  0  0  0  0  0  0
   -7.1770    4.5360   -6.5466 C   0  0  0  0  0  0  0  0  0  0  0  0
   -5.8202    5.6146  -15.6638 C   0  0  0  0  0  0  0  0  0  0  0  0
  1  2  1  0
  2  3  2  0
  3  4  1  0
  4  5  1  0
  5  6  1  0
  5  7  1  0
  5  8  1  0
  4  9  1  0
  9 10  2  0
 10 11  1  0
 11 12  1  0
 12 13  1  0
 12 14  1  0
 11 15  2  0
 15 16  1  0
 16 17  1  0
 17 18  2  0
 17 19  1  0
 19 20  1  0
 20 21  2  0
 21 22  1  0
 22 23  2  0
 23 24  1  0
 24 25  2  0
 24 26  1  0
 26 27  1  0
 27 28  1  0
 27 29  1  0
 29 30  1  0
 29 31  1  0
 16 32  2  0
 32  2  1  0
 32  9  1  0
 25 20  1  0
 29 23  1  0
M  END
>  <name>  (321) 
P116168

>  <alias>  (321) 
None

>  <smina_score_min>  (321) 
-7.153

>  <exports>  (321) 
['/opt/xchem-fragalysis-2/maxwin/BulkDock/OUTPUTS/openbind_xx01zvns2b_c2_elabs_1LOUTNY.sdf', '/opt/xchem-fragalysis-2/maxwin/BulkDock/OUTPUTS/openbind_xx01zvns2b_c2_elabs_1LSYIIV.sdf']

>  <tags>  (321) 
syndirella_placed,openbind_xx01zvns2b_c2_elabs,openbind_xx01zvns2b_c2_elabs_scored_6.2plus,syndirella_product,openbind_xx01zvns2b_c2_elabs_scored,openbind_xx01zvns2b_c2_elabs_scored_top80percent,BulkDock Fragalysis export

>  <subsites>  (321) 
1 - Z4590/B/203/1

>  <smiles>  (321) 
Cc1nn(C(C)(C)C)c2nc(C(C)C)cc(C(=O)Nc3ccc4c(c3)CN(C)C4(C)C)c12

>  <HIPPO Pose ID>  (321) 
116168

>  <energy_score>  (321) 
-47.408383

>  <inchikey>  (321) 
MNUKWALCVCYGPS-UHFFFAOYSA-N

>  <gnina_score_min>  (321) 
6.515

>  <gnina_score>  (321) 
6.466

>  <ref_mols>  (321) 
Z3556a

>  <HIPPO Compound ID>  (321) 
179396

>  <distance_score>  (321) 
0.769869

>  <rmsd(smina/fragmenstein)>  (321) 
0.45

>  <ref_pdb>  (321) 
Z3556a

>  <inspiration_score>  (321) 
None

$$$$
P116173
     RDKit          3D

 32 35  0  0  0  0  0  0  0  0999 V2000
   -7.2125    5.9222   -4.5600 C   0  0  0  0  0  0  0  0  0  0  0  0
   -8.5752    5.8031   -3.9014 C   0  0  0  0  0  0  0  0  0  0  0  0
   -9.4539    4.9889   -4.6714 O   0  0  0  0  0  0  0  0  0  0  0  0
   -9.2728    3.5880   -4.4525 C   0  0  0  0  0  0  0  0  0  0  0  0
  -10.2569    2.7895   -5.3120 C   0  0  0  0  0  0  0  0  0  0  0  0
   -9.5932    2.0357   -6.4720 C   0  0  0  0  0  0  0  0  0  0  0  0
   -9.5058    2.8204   -7.6832 N   0  0  0  0  0  0  0  0  0  0  0  0
   -8.7499    4.0745   -7.5834 C   0  0  0  0  0  0  0  0  0  0  0  0
   -8.3746    4.3490   -9.0007 C   0  0  0  0  0  0  0  0  0  0  0  0
   -8.0032    5.5351   -9.5922 C   0  0  0  0  0  0  0  0  0  0  0  0
   -7.7420    5.5140  -10.9602 C   0  0  0  0  0  0  0  0  0  0  0  0
   -7.8432    4.3212  -11.7029 C   0  0  0  0  0  0  0  0  0  0  0  0
   -7.5712    4.3221  -13.0645 N   0  0  0  0  0  0  0  0  0  0  0  0
   -7.1065    5.4597  -13.9902 C   0  0  0  0  0  0  0  0  0  0  0  0
   -6.8037    6.5590  -13.7443 O   0  0  0  0  0  0  0  0  0  0  0  0
   -7.0165    5.0277  -15.3903 C   0  0  0  0  0  0  0  0  0  0  0  0
   -8.1225    4.5488  -16.0941 C   0  0  0  0  0  0  0  0  0  0  0  0
   -8.0194    4.4154  -17.4788 C   0  0  0  0  0  0  0  0  0  0  0  0
   -9.2088    3.9381  -18.2647 C   0  0  0  0  0  0  0  0  0  0  0  0
   -6.9145    4.7353  -18.1960 N   0  0  0  0  0  0  0  0  0  0  0  0
   -5.8719    5.1519  -17.4565 C   0  0  0  0  0  0  0  0  0  0  0  0
   -5.8331    5.2863  -16.0832 C   0  0  0  0  0  0  0  0  0  0  0  0
   -4.5246    5.7217  -15.7995 C   0  0  0  0  0  0  0  0  0  0  0  0
   -3.7832    5.8762  -16.9012 N   0  0  0  0  0  0  0  0  0  0  0  0
   -4.6657    5.6324  -17.9066 N   0  0  0  0  0  0  0  0  0  0  0  0
   -4.4089    6.1167  -19.2635 C   0  0  2  0  0  0  0  0  0  0  0  0
   -4.0330    4.9850  -20.2048 C   0  0  0  0  0  0  0  0  0  0  0  0
   -3.3850    7.2745  -19.2986 C   0  0  0  0  0  0  0  0  0  0  0  0
   -3.3158    7.9892  -20.6420 C   0  0  0  0  0  0  0  0  0  0  0  0
   -8.2099    3.1264  -11.0865 C   0  0  0  0  0  0  0  0  0  0  0  0
   -8.4787    3.1638   -9.7333 C   0  0  0  0  0  0  0  0  0  0  0  0
   -8.9213    2.0727   -8.8135 C   0  0  0  0  0  0  0  0  0  0  0  0
  1  2  1  0
  2  3  1  0
  3  4  1  0
  4  5  1  0
  5  6  1  0
  6  7  1  0
  7  8  1  0
  8  9  1  0
  9 10  2  0
 10 11  1  0
 11 12  2  0
 12 13  1  0
 13 14  1  0
 14 15  2  0
 14 16  1  0
 16 17  2  0
 17 18  1  0
 18 19  1  0
 18 20  2  0
 20 21  1  0
 21 22  2  0
 22 23  1  0
 23 24  2  0
 24 25  1  0
 25 26  1  0
 26 27  1  6
 26 28  1  0
 28 29  1  0
 12 30  1  0
 30 31  2  0
 31 32  1  0
 32  7  1  0
 31  9  1  0
 22 16  1  0
 25 21  1  0
M  END
>  <name>  (322) 
P116173

>  <alias>  (322) 
None

>  <smina_score_min>  (322) 
-7.705

>  <exports>  (322) 
['/opt/xchem-fragalysis-2/maxwin/BulkDock/OUTPUTS/openbind_xx01zvns2b_c2_elabs_1LOUTNY.sdf', '/opt/xchem-fragalysis-2/maxwin/BulkDock/OUTPUTS/openbind_xx01zvns2b_c2_elabs_1LSYIIV.sdf']

>  <tags>  (322) 
syndirella_placed,openbind_xx01zvns2b_c2_elabs,openbind_xx01zvns2b_c2_elabs_scored_6.2plus,syndirella_product,openbind_xx01zvns2b_c2_elabs_scored,openbind_xx01zvns2b_c2_elabs_scored_top80percent,BulkDock Fragalysis export

>  <subsites>  (322) 
1 - Z4590/B/203/1

>  <smiles>  (322) 
CCOCCCN1Cc2ccc(NC(=O)c3cc(C)nc4c3cnn4[C@H](C)CC)cc2C1

>  <HIPPO Pose ID>  (322) 
116173

>  <energy_score>  (322) 
-30.76938

>  <inchikey>  (322) 
MRRMYNPZKAUFNI-GOSISDBHSA-N

>  <gnina_score_min>  (322) 
6.409

>  <gnina_score>  (322) 
6.224

>  <ref_mols>  (322) 
Z3556a

>  <HIPPO Compound ID>  (322) 
179404

>  <distance_score>  (322) 
0.634279

>  <rmsd(smina/fragmenstein)>  (322) 
0.814

>  <ref_pdb>  (322) 
Z3556a

>  <inspiration_score>  (322) 
None

$$$$
P116174
     RDKit          3D

 32 36  0  0  0  0  0  0  0  0999 V2000
  -10.2768    4.3625  -18.3615 C   0  0  0  0  0  0  0  0  0  0  0  0
   -9.0748    3.5223  -18.0176 C   0  0  0  0  0  0  0  0  0  0  0  0
   -8.0061    4.2421  -17.2414 C   0  0  0  0  0  0  0  0  0  0  0  0
   -8.1647    4.4944  -15.8797 C   0  0  0  0  0  0  0  0  0  0  0  0
   -7.0928    5.0391  -15.1709 C   0  0  0  0  0  0  0  0  0  0  0  0
   -7.2402    5.4990  -13.7767 C   0  0  0  0  0  0  0  0  0  0  0  0
   -6.9580    6.6136  -13.5659 O   0  0  0  0  0  0  0  0  0  0  0  0
   -7.6835    4.3752  -12.8075 N   0  0  0  0  0  0  0  0  0  0  0  0
   -7.9542    4.4133  -11.4362 C   0  0  0  0  0  0  0  0  0  0  0  0
   -7.7736    5.6191  -10.7263 C   0  0  0  0  0  0  0  0  0  0  0  0
   -7.9873    5.7011   -9.3467 C   0  0  0  0  0  0  0  0  0  0  0  0
   -8.3990    4.5625   -8.6893 C   0  0  0  0  0  0  0  0  0  0  0  0
   -8.6004    3.3757   -9.3953 C   0  0  0  0  0  0  0  0  0  0  0  0
   -8.3800    3.2651  -10.7625 C   0  0  0  0  0  0  0  0  0  0  0  0
   -9.1437    2.3939   -8.4456 C   0  0  0  0  0  0  0  0  0  0  0  0
   -9.5407    1.2869   -8.7350 O   0  0  0  0  0  0  0  0  0  0  0  0
   -9.2058    3.0176   -7.2142 N   0  0  0  0  0  0  0  0  0  0  0  0
   -9.8867    2.4697   -6.0709 C   0  0  0  0  0  0  0  0  0  0  0  0
   -8.7292    4.3764   -7.2481 C   0  0  0  0  0  0  0  0  0  0  0  0
   -5.8787    5.2573  -15.8460 C   0  0  0  0  0  0  0  0  0  0  0  0
   -4.5563    5.6642  -15.5419 C   0  0  0  0  0  0  0  0  0  0  0  0
   -3.9818    6.0290  -14.2214 C   0  0  0  0  0  0  0  0  0  0  0  0
   -3.7653    5.6576  -16.6215 N   0  0  0  0  0  0  0  0  0  0  0  0
   -4.5864    5.3193  -17.6588 N   0  0  0  0  0  0  0  0  0  0  0  0
   -4.0863    5.3149  -18.9948 C   0  0  0  0  0  0  0  0  0  0  0  0
   -4.9474    5.2756  -20.1007 C   0  0  0  0  0  0  0  0  0  0  0  0
   -4.4305    5.2853  -21.3993 C   0  0  0  0  0  0  0  0  0  0  0  0
   -3.0533    5.3136  -21.6047 C   0  0  0  0  0  0  0  0  0  0  0  0
   -2.1901    5.3501  -20.5114 C   0  0  0  0  0  0  0  0  0  0  0  0
   -2.7011    5.3653  -19.2112 C   0  0  0  0  0  0  0  0  0  0  0  0
   -5.8650    5.0159  -17.2108 C   0  0  0  0  0  0  0  0  0  0  0  0
   -6.8944    4.5403  -17.9383 N   0  0  0  0  0  0  0  0  0  0  0  0
  1  2  1  0
  2  3  1  0
  3  4  2  0
  4  5  1  0
  5  6  1  0
  6  7  2  0
  6  8  1  0
  8  9  1  0
  9 10  2  0
 10 11  1  0
 11 12  2  0
 12 13  1  0
 13 14  2  0
 13 15  1  0
 15 16  2  0
 15 17  1  0
 17 18  1  0
 17 19  1  0
  5 20  2  0
 20 21  1  0
 21 22  1  0
 21 23  2  0
 23 24  1  0
 24 25  1  0
 25 26  2  0
 26 27  1  0
 27 28  2  0
 28 29  1  0
 29 30  2  0
 24 31  1  0
 31 32  2  0
 32  3  1  0
 14  9  1  0
 31 20  1  0
 19 12  1  0
 30 25  1  0
M  END
>  <name>  (323) 
P116174

>  <alias>  (323) 
None

>  <smina_score_min>  (323) 
-9.017

>  <exports>  (323) 
['/opt/xchem-fragalysis-2/maxwin/BulkDock/OUTPUTS/openbind_xx01zvns2b_c2_elabs_1LOUTNY.sdf', '/opt/xchem-fragalysis-2/maxwin/BulkDock/OUTPUTS/openbind_xx01zvns2b_c2_elabs_1LSYIIV.sdf']

>  <tags>  (323) 
syndirella_placed,openbind_xx01zvns2b_c2_elabs,openbind_xx01zvns2b_c2_elabs_scored_6.2plus,syndirella_product,openbind_xx01zvns2b_c2_elabs_scored,openbind_xx01zvns2b_c2_elabs_scored_top80percent,BulkDock Fragalysis export

>  <subsites>  (323) 
1 - Z4590/B/203/1

>  <smiles>  (323) 
CCc1cc(C(=O)Nc2ccc3c(c2)C(=O)N(C)C3)c2c(C)nn(-c3ccccc3)c2n1

>  <HIPPO Pose ID>  (323) 
116174

>  <energy_score>  (323) 
-33.763532

>  <inchikey>  (323) 
VTXYGCXOPGQYCE-UHFFFAOYSA-N

>  <gnina_score_min>  (323) 
6.385

>  <gnina_score>  (323) 
6.451

>  <ref_mols>  (323) 
Z3556a

>  <HIPPO Compound ID>  (323) 
179407

>  <distance_score>  (323) 
0.511469

>  <rmsd(smina/fragmenstein)>  (323) 
0.56

>  <ref_pdb>  (323) 
Z3556a

>  <inspiration_score>  (323) 
None

$$$$
P116175
     RDKit          3D

 32 36  0  0  0  0  0  0  0  0999 V2000
   -9.3900    2.9192  -18.1433 C   0  0  0  0  0  0  0  0  0  0  0  0
   -9.2041    4.4003  -18.0563 C   0  0  0  0  0  0  0  0  0  0  0  0
   -7.9450    4.7056  -17.2913 C   0  0  0  0  0  0  0  0  0  0  0  0
   -8.0018    4.8820  -15.9146 C   0  0  0  0  0  0  0  0  0  0  0  0
   -6.8271    5.2043  -15.2397 C   0  0  0  0  0  0  0  0  0  0  0  0
   -6.8801    5.5959  -13.8270 C   0  0  0  0  0  0  0  0  0  0  0  0
   -6.5453    6.6757  -13.5396 O   0  0  0  0  0  0  0  0  0  0  0  0
   -7.4145    4.4480  -12.9481 N   0  0  0  0  0  0  0  0  0  0  0  0
   -7.7275    4.4181  -11.5945 C   0  0  0  0  0  0  0  0  0  0  0  0
   -7.6496    5.5875  -10.8154 C   0  0  0  0  0  0  0  0  0  0  0  0
   -7.9694    5.5709   -9.4573 C   0  0  0  0  0  0  0  0  0  0  0  0
   -8.3691    4.3715   -8.9101 C   0  0  0  0  0  0  0  0  0  0  0  0
   -8.4448    3.2083   -9.6804 C   0  0  0  0  0  0  0  0  0  0  0  0
   -8.1282    3.2091  -11.0249 C   0  0  0  0  0  0  0  0  0  0  0  0
   -8.9075    2.0867   -8.8080 C   0  0  0  0  0  0  0  0  0  0  0  0
   -9.5418    2.7928   -7.6758 N   0  0  0  0  0  0  0  0  0  0  0  0
   -9.6005    1.9843   -6.4772 C   0  0  0  0  0  0  0  0  0  0  0  0
  -10.5511    2.6188   -5.4739 C   0  0  0  0  0  0  0  0  0  0  0  0
   -8.7893    4.0506   -7.5135 C   0  0  0  0  0  0  0  0  0  0  0  0
   -5.6247    5.2775  -15.9507 C   0  0  0  0  0  0  0  0  0  0  0  0
   -4.2544    5.4971  -15.6863 C   0  0  0  0  0  0  0  0  0  0  0  0
   -3.5958    5.7401  -14.3778 C   0  0  0  0  0  0  0  0  0  0  0  0
   -3.5134    5.4353  -16.7983 N   0  0  0  0  0  0  0  0  0  0  0  0
   -4.4114    5.2493  -17.8131 N   0  0  0  0  0  0  0  0  0  0  0  0
   -3.9700    5.2684  -19.1702 C   0  0  0  0  0  0  0  0  0  0  0  0
   -4.8756    5.3244  -20.2397 C   0  0  0  0  0  0  0  0  0  0  0  0
   -4.4135    5.3670  -21.5584 C   0  0  0  0  0  0  0  0  0  0  0  0
   -3.0471    5.3386  -21.8230 C   0  0  0  0  0  0  0  0  0  0  0  0
   -2.1398    5.2793  -20.7678 C   0  0  0  0  0  0  0  0  0  0  0  0
   -2.5946    5.2523  -19.4468 C   0  0  0  0  0  0  0  0  0  0  0  0
   -5.6993    5.0859  -17.3211 C   0  0  0  0  0  0  0  0  0  0  0  0
   -6.8174    4.8026  -18.0193 N   0  0  0  0  0  0  0  0  0  0  0  0
  1  2  1  0
  2  3  1  0
  3  4  2  0
  4  5  1  0
  5  6  1  0
  6  7  2  0
  6  8  1  0
  8  9  1  0
  9 10  2  0
 10 11  1  0
 11 12  2  0
 12 13  1  0
 13 14  2  0
 13 15  1  0
 15 16  1  0
 16 17  1  0
 17 18  1  0
 16 19  1  0
  5 20  2  0
 20 21  1  0
 21 22  1  0
 21 23  2  0
 23 24  1  0
 24 25  1  0
 25 26  2  0
 26 27  1  0
 27 28  2  0
 28 29  1  0
 29 30  2  0
 24 31  1  0
 31 32  2  0
 32  3  1  0
 14  9  1  0
 31 20  1  0
 19 12  1  0
 30 25  1  0
M  END
>  <name>  (324) 
P116175

>  <alias>  (324) 
None

>  <smina_score_min>  (324) 
-8.797

>  <exports>  (324) 
['/opt/xchem-fragalysis-2/maxwin/BulkDock/OUTPUTS/openbind_xx01zvns2b_c2_elabs_1LOUTNY.sdf', '/opt/xchem-fragalysis-2/maxwin/BulkDock/OUTPUTS/openbind_xx01zvns2b_c2_elabs_1LSYIIV.sdf']

>  <tags>  (324) 
syndirella_placed,openbind_xx01zvns2b_c2_elabs,openbind_xx01zvns2b_c2_elabs_scored_6.2plus,syndirella_product,openbind_xx01zvns2b_c2_elabs_scored,openbind_xx01zvns2b_c2_elabs_scored_top80percent,BulkDock Fragalysis export

>  <subsites>  (324) 
1 - Z4590/B/203/1

>  <smiles>  (324) 
CCc1cc(C(=O)Nc2ccc3c(c2)CN(CC)C3)c2c(C)nn(-c3ccccc3)c2n1

>  <HIPPO Pose ID>  (324) 
116175

>  <energy_score>  (324) 
-67.128823

>  <inchikey>  (324) 
ZVJDXNOSSUMAOX-UHFFFAOYSA-N

>  <gnina_score_min>  (324) 
6.519

>  <gnina_score>  (324) 
6.444

>  <ref_mols>  (324) 
Z3556a

>  <HIPPO Compound ID>  (324) 
179408

>  <distance_score>  (324) 
0.624094

>  <rmsd(smina/fragmenstein)>  (324) 
0.349

>  <ref_pdb>  (324) 
Z3556a

>  <inspiration_score>  (324) 
None

$$$$
P116193
     RDKit          3D

 32 36  0  0  0  0  0  0  0  0999 V2000
   -9.1445    4.3049  -18.9880 C   0  0  0  0  0  0  0  0  0  0  0  0
   -9.1837    3.8371  -17.5586 C   0  0  0  0  0  0  0  0  0  0  0  0
   -7.9819    4.3169  -16.7903 C   0  0  0  0  0  0  0  0  0  0  0  0
   -8.0643    4.5023  -15.4175 C   0  0  0  0  0  0  0  0  0  0  0  0
   -6.9319    4.9458  -14.7305 C   0  0  0  0  0  0  0  0  0  0  0  0
   -7.0294    5.3606  -13.3158 C   0  0  0  0  0  0  0  0  0  0  0  0
   -6.5935    6.4133  -13.0540 O   0  0  0  0  0  0  0  0  0  0  0  0
   -7.7695    4.3283  -12.4239 N   0  0  0  0  0  0  0  0  0  0  0  0
   -8.0336    4.3383  -11.0440 C   0  0  0  0  0  0  0  0  0  0  0  0
   -8.5141    3.1689  -10.4332 C   0  0  0  0  0  0  0  0  0  0  0  0
   -8.7033    3.1897   -9.0555 C   0  0  0  0  0  0  0  0  0  0  0  0
   -8.4143    4.3076   -8.2738 C   0  0  0  0  0  0  0  0  0  0  0  0
   -7.9909    5.4772   -8.8648 C   0  0  0  0  0  0  0  0  0  0  0  0
   -7.8170    5.4867  -10.2490 C   0  0  0  0  0  0  0  0  0  0  0  0
   -7.4431    6.6540  -10.7859 F   0  0  0  0  0  0  0  0  0  0  0  0
   -8.6187    4.0026   -6.8309 C   0  0  0  0  0  0  0  0  0  0  0  0
   -9.1784    2.6828   -6.8609 N   0  0  0  0  0  0  0  0  0  0  0  0
   -9.1954    2.1510   -8.1354 C   0  0  0  0  0  0  0  0  0  0  0  0
   -9.5909    1.0438   -8.4209 O   0  0  0  0  0  0  0  0  0  0  0  0
   -5.7393    5.1511  -15.4527 C   0  0  0  0  0  0  0  0  0  0  0  0
   -4.3912    5.5108  -15.2049 C   0  0  0  0  0  0  0  0  0  0  0  0
   -3.7388    5.8104  -13.9043 C   0  0  0  0  0  0  0  0  0  0  0  0
   -3.6556    5.5314  -16.3241 N   0  0  0  0  0  0  0  0  0  0  0  0
   -4.5323    5.2397  -17.3290 N   0  0  0  0  0  0  0  0  0  0  0  0
   -4.0977    5.2654  -18.6898 C   0  0  0  0  0  0  0  0  0  0  0  0
   -2.7236    5.3135  -18.9704 C   0  0  0  0  0  0  0  0  0  0  0  0
   -2.2725    5.3237  -20.2929 C   0  0  0  0  0  0  0  0  0  0  0  0
   -3.1851    5.3138  -21.3461 C   0  0  0  0  0  0  0  0  0  0  0  0
   -4.5515    5.2855  -21.0781 C   0  0  0  0  0  0  0  0  0  0  0  0
   -5.0084    5.2530  -19.7565 C   0  0  0  0  0  0  0  0  0  0  0  0
   -5.7940    4.9576  -16.8238 C   0  0  0  0  0  0  0  0  0  0  0  0
   -6.8713    4.5479  -17.5140 N   0  0  0  0  0  0  0  0  0  0  0  0
  1  2  1  0
  2  3  1  0
  3  4  2  0
  4  5  1  0
  5  6  1  0
  6  7  2  0
  6  8  1  0
  8  9  1  0
  9 10  2  0
 10 11  1  0
 11 12  2  0
 12 13  1  0
 13 14  2  0
 14 15  1  0
 12 16  1  0
 16 17  1  0
 17 18  1  0
 18 19  2  0
  5 20  2  0
 20 21  1  0
 21 22  1  0
 21 23  2  0
 23 24  1  0
 24 25  1  0
 25 26  2  0
 26 27  1  0
 27 28  2  0
 28 29  1  0
 29 30  2  0
 24 31  1  0
 31 32  2  0
 32  3  1  0
 14  9  1  0
 31 20  1  0
 18 11  1  0
 30 25  1  0
M  END
>  <name>  (325) 
P116193

>  <alias>  (325) 
None

>  <smina_score_min>  (325) 
-8.708

>  <exports>  (325) 
['/opt/xchem-fragalysis-2/maxwin/BulkDock/OUTPUTS/openbind_xx01zvns2b_c2_elabs_1LOUTNY.sdf', '/opt/xchem-fragalysis-2/maxwin/BulkDock/OUTPUTS/openbind_xx01zvns2b_c2_elabs_1LSYIIV.sdf']

>  <tags>  (325) 
syndirella_placed,openbind_xx01zvns2b_c2_elabs,openbind_xx01zvns2b_c2_elabs_scored_6.2plus,syndirella_product,openbind_xx01zvns2b_c2_elabs_scored,openbind_xx01zvns2b_c2_elabs_scored_top80percent,BulkDock Fragalysis export

>  <subsites>  (325) 
1 - Z4590/B/203/1

>  <smiles>  (325) 
CCc1cc(C(=O)Nc2cc3c(cc2F)CNC3=O)c2c(C)nn(-c3ccccc3)c2n1

>  <HIPPO Pose ID>  (325) 
116193

>  <energy_score>  (325) 
-37.125496

>  <inchikey>  (325) 
AVNUAUUXFCZAKS-UHFFFAOYSA-N

>  <gnina_score_min>  (325) 
6.309

>  <gnina_score>  (325) 
6.388

>  <ref_mols>  (325) 
Z3556a

>  <HIPPO Compound ID>  (325) 
179430

>  <distance_score>  (325) 
0.528589

>  <rmsd(smina/fragmenstein)>  (325) 
0.457

>  <ref_pdb>  (325) 
Z3556a

>  <inspiration_score>  (325) 
None

$$$$
P116198
     RDKit          3D

 33 37  0  0  0  0  0  0  0  0999 V2000
   -9.2176    3.9027  -18.0862 C   0  0  0  0  0  0  0  0  0  0  0  0
   -8.0918    4.3487  -17.1945 C   0  0  0  0  0  0  0  0  0  0  0  0
   -8.3088    4.5059  -15.8233 C   0  0  0  0  0  0  0  0  0  0  0  0
   -7.2689    4.9808  -15.0204 C   0  0  0  0  0  0  0  0  0  0  0  0
   -7.4991    5.4225  -13.6284 C   0  0  0  0  0  0  0  0  0  0  0  0
   -7.2516    6.5423  -13.3994 O   0  0  0  0  0  0  0  0  0  0  0  0
   -7.9843    4.2881  -12.6889 N   0  0  0  0  0  0  0  0  0  0  0  0
   -8.1683    4.2734  -11.2988 C   0  0  0  0  0  0  0  0  0  0  0  0
   -7.9125    5.4516  -10.5594 C   0  0  0  0  0  0  0  0  0  0  0  0
   -7.9907    5.4744   -9.1637 C   0  0  0  0  0  0  0  0  0  0  0  0
   -8.3519    4.3035   -8.5365 C   0  0  0  0  0  0  0  0  0  0  0  0
   -8.6603    3.1547   -9.2462 C   0  0  0  0  0  0  0  0  0  0  0  0
   -8.5625    3.1025  -10.6330 C   0  0  0  0  0  0  0  0  0  0  0  0
   -9.0732    2.1582   -8.2485 C   0  0  0  0  0  0  0  0  0  0  0  0
   -9.5702    1.0763   -8.4694 O   0  0  0  0  0  0  0  0  0  0  0  0
   -8.8948    2.7231   -7.0229 N   0  0  0  0  0  0  0  0  0  0  0  0
   -8.4757    4.0090   -7.1088 C   0  0  0  0  0  0  0  0  0  0  0  0
   -8.2344    4.7898   -6.2078 O   0  0  0  0  0  0  0  0  0  0  0  0
   -6.0194    5.2141  -15.6207 C   0  0  0  0  0  0  0  0  0  0  0  0
   -4.7155    5.6382  -15.2428 C   0  0  0  0  0  0  0  0  0  0  0  0
   -4.2186    6.0070  -13.8933 C   0  0  0  0  0  0  0  0  0  0  0  0
   -3.8712    5.6599  -16.2844 N   0  0  0  0  0  0  0  0  0  0  0  0
   -4.6389    5.2889  -17.3348 N   0  0  0  0  0  0  0  0  0  0  0  0
   -4.0499    5.1165  -18.6522 C   0  0  0  0  0  0  0  0  0  0  0  0
   -3.9137    6.4174  -19.4032 C   0  0  0  0  0  0  0  0  0  0  0  0
   -4.9821    6.8428  -20.2159 C   0  0  0  0  0  0  0  0  0  0  0  0
   -4.8898    8.0183  -20.9629 C   0  0  0  0  0  0  0  0  0  0  0  0
   -3.7437    8.8033  -20.8903 C   0  0  0  0  0  0  0  0  0  0  0  0
   -2.6838    8.4054  -20.0774 C   0  0  0  0  0  0  0  0  0  0  0  0
   -2.7623    7.2177  -19.3413 C   0  0  0  0  0  0  0  0  0  0  0  0
   -1.3799    6.7803  -18.4031 Cl  0  0  0  0  0  0  0  0  0  0  0  0
   -5.9310    4.9996  -16.9866 C   0  0  0  0  0  0  0  0  0  0  0  0
   -6.9120    4.5894  -17.8105 N   0  0  0  0  0  0  0  0  0  0  0  0
  1  2  1  0
  2  3  2  0
  3  4  1  0
  4  5  1  0
  5  6  2  0
  5  7  1  0
  7  8  1  0
  8  9  2  0
  9 10  1  0
 10 11  2  0
 11 12  1  0
 12 13  2  0
 12 14  1  0
 14 15  2  0
 14 16  1  0
 16 17  1  0
 17 18  2  0
  4 19  2  0
 19 20  1  0
 20 21  1  0
 20 22  2  0
 22 23  1  0
 23 24  1  0
 24 25  1  0
 25 26  2  0
 26 27  1  0
 27 28  2  0
 28 29  1  0
 29 30  2  0
 30 31  1  0
 23 32  1  0
 32 33  2  0
 33  2  1  0
 13  8  1  0
 32 19  1  0
 17 11  1  0
 30 25  1  0
M  END
>  <name>  (326) 
P116198

>  <alias>  (326) 
None

>  <smina_score_min>  (326) 
-8.679

>  <exports>  (326) 
['/opt/xchem-fragalysis-2/maxwin/BulkDock/OUTPUTS/openbind_xx01zvns2b_c2_elabs_1LOUTNY.sdf', '/opt/xchem-fragalysis-2/maxwin/BulkDock/OUTPUTS/openbind_xx01zvns2b_c2_elabs_1LSYIIV.sdf']

>  <tags>  (326) 
syndirella_placed,openbind_xx01zvns2b_c2_elabs,openbind_xx01zvns2b_c2_elabs_scored_6.2plus,syndirella_product,openbind_xx01zvns2b_c2_elabs_scored,openbind_xx01zvns2b_c2_elabs_scored_top80percent,BulkDock Fragalysis export

>  <subsites>  (326) 
1 - Z4590/B/203/1

>  <smiles>  (326) 
Cc1cc(C(=O)Nc2ccc3c(c2)C(=O)NC3=O)c2c(C)nn(Cc3ccccc3Cl)c2n1

>  <HIPPO Pose ID>  (326) 
116198

>  <energy_score>  (326) 
-61.437013

>  <inchikey>  (326) 
YPNJRURAOVCTCU-UHFFFAOYSA-N

>  <gnina_score_min>  (326) 
6.368

>  <gnina_score>  (326) 
6.338

>  <ref_mols>  (326) 
Z3556a

>  <HIPPO Compound ID>  (326) 
179438

>  <distance_score>  (326) 
0.377744

>  <rmsd(smina/fragmenstein)>  (326) 
0.649

>  <ref_pdb>  (326) 
Z3556a

>  <inspiration_score>  (326) 
None

$$$$
P116199
     RDKit          3D

 33 37  0  0  0  0  0  0  0  0999 V2000
   -9.1680    3.9068  -18.2350 C   0  0  0  0  0  0  0  0  0  0  0  0
   -8.0332    4.3731  -17.3660 C   0  0  0  0  0  0  0  0  0  0  0  0
   -8.2442    4.5565  -16.0003 C   0  0  0  0  0  0  0  0  0  0  0  0
   -7.1946    5.0417  -15.2176 C   0  0  0  0  0  0  0  0  0  0  0  0
   -7.4238    5.4994  -13.8411 C   0  0  0  0  0  0  0  0  0  0  0  0
   -7.2929    6.6385  -13.6237 O   0  0  0  0  0  0  0  0  0  0  0  0
   -7.8080    4.3396  -12.9002 N   0  0  0  0  0  0  0  0  0  0  0  0
   -8.0128    4.3221  -11.5215 C   0  0  0  0  0  0  0  0  0  0  0  0
   -7.9943    5.5257  -10.7874 C   0  0  0  0  0  0  0  0  0  0  0  0
   -8.2355    5.5346   -9.4132 C   0  0  0  0  0  0  0  0  0  0  0  0
   -8.4929    4.3214   -8.8116 C   0  0  0  0  0  0  0  0  0  0  0  0
   -8.5057    3.1192   -9.5168 C   0  0  0  0  0  0  0  0  0  0  0  0
   -8.2577    3.1017  -10.8807 C   0  0  0  0  0  0  0  0  0  0  0  0
   -8.8692    2.0028   -8.5962 C   0  0  0  0  0  0  0  0  0  0  0  0
   -9.1399    2.7016   -7.3505 N   0  0  0  0  0  0  0  0  0  0  0  0
   -9.9076    2.0881   -6.3015 C   0  0  0  0  0  0  0  0  0  0  0  0
   -8.9159    4.0592   -7.4319 C   0  0  0  0  0  0  0  0  0  0  0  0
   -9.0980    4.9211   -6.5913 O   0  0  0  0  0  0  0  0  0  0  0  0
   -5.9473    5.2562  -15.8135 C   0  0  0  0  0  0  0  0  0  0  0  0
   -4.6414    5.6740  -15.4393 C   0  0  0  0  0  0  0  0  0  0  0  0
   -4.1449    6.0316  -14.0866 C   0  0  0  0  0  0  0  0  0  0  0  0
   -3.8074    5.7153  -16.4910 N   0  0  0  0  0  0  0  0  0  0  0  0
   -4.6013    5.3762  -17.5369 N   0  0  0  0  0  0  0  0  0  0  0  0
   -4.0849    5.4184  -18.8963 C   0  0  0  0  0  0  0  0  0  0  0  0
   -4.3929    6.7249  -19.6036 C   0  0  0  0  0  0  0  0  0  0  0  0
   -4.2374    7.9574  -18.9371 C   0  0  0  0  0  0  0  0  0  0  0  0
   -4.4897    9.1706  -19.5830 C   0  0  0  0  0  0  0  0  0  0  0  0
   -4.8864    9.1808  -20.9152 C   0  0  0  0  0  0  0  0  0  0  0  0
   -5.0223    7.9762  -21.6017 C   0  0  0  0  0  0  0  0  0  0  0  0
   -4.7698    6.7596  -20.9553 C   0  0  0  0  0  0  0  0  0  0  0  0
   -4.8940    5.3256  -21.9067 Cl  0  0  0  0  0  0  0  0  0  0  0  0
   -5.8741    5.0376  -17.1765 C   0  0  0  0  0  0  0  0  0  0  0  0
   -6.8581    4.6183  -17.9913 N   0  0  0  0  0  0  0  0  0  0  0  0
  1  2  1  0
  2  3  2  0
  3  4  1  0
  4  5  1  0
  5  6  2  0
  5  7  1  0
  7  8  1  0
  8  9  2  0
  9 10  1  0
 10 11  2  0
 11 12  1  0
 12 13  2  0
 12 14  1  0
 14 15  1  0
 15 16  1  0
 15 17  1  0
 17 18  2  0
  4 19  2  0
 19 20  1  0
 20 21  1  0
 20 22  2  0
 22 23  1  0
 23 24  1  0
 24 25  1  0
 25 26  2  0
 26 27  1  0
 27 28  2  0
 28 29  1  0
 29 30  2  0
 30 31  1  0
 23 32  1  0
 32 33  2  0
 33  2  1  0
 13  8  1  0
 32 19  1  0
 17 11  1  0
 30 25  1  0
M  END
>  <name>  (327) 
P116199

>  <alias>  (327) 
None

>  <smina_score_min>  (327) 
-9.223

>  <exports>  (327) 
['/opt/xchem-fragalysis-2/maxwin/BulkDock/OUTPUTS/openbind_xx01zvns2b_c2_elabs_1LOUTNY.sdf', '/opt/xchem-fragalysis-2/maxwin/BulkDock/OUTPUTS/openbind_xx01zvns2b_c2_elabs_1LSYIIV.sdf']

>  <tags>  (327) 
syndirella_placed,openbind_xx01zvns2b_c2_elabs,openbind_xx01zvns2b_c2_elabs_scored_6.2plus,syndirella_product,openbind_xx01zvns2b_c2_elabs_scored,openbind_xx01zvns2b_c2_elabs_scored_top80percent,BulkDock Fragalysis export

>  <subsites>  (327) 
1 - Z4590/B/203/1

>  <smiles>  (327) 
Cc1cc(C(=O)Nc2ccc3c(c2)CN(C)C3=O)c2c(C)nn(Cc3ccccc3Cl)c2n1

>  <HIPPO Pose ID>  (327) 
116199

>  <energy_score>  (327) 
-20.442821

>  <inchikey>  (327) 
QEOXIILDHUXWFK-UHFFFAOYSA-N

>  <gnina_score_min>  (327) 
6.629

>  <gnina_score>  (327) 
6.585

>  <ref_mols>  (327) 
Z3556a

>  <HIPPO Compound ID>  (327) 
179439

>  <distance_score>  (327) 
0.427363

>  <rmsd(smina/fragmenstein)>  (327) 
0.579

>  <ref_pdb>  (327) 
Z3556a

>  <inspiration_score>  (327) 
None

$$$$
P116200
     RDKit          3D

 33 37  0  0  0  0  0  0  0  0999 V2000
   -9.2151    3.8921  -18.1004 C   0  0  0  0  0  0  0  0  0  0  0  0
   -8.0934    4.3354  -17.2026 C   0  0  0  0  0  0  0  0  0  0  0  0
   -8.3130    4.4792  -15.8305 C   0  0  0  0  0  0  0  0  0  0  0  0
   -7.2744    4.9497  -15.0237 C   0  0  0  0  0  0  0  0  0  0  0  0
   -7.5132    5.4241  -13.6472 C   0  0  0  0  0  0  0  0  0  0  0  0
   -7.2764    6.5526  -13.4535 O   0  0  0  0  0  0  0  0  0  0  0  0
   -7.9860    4.3147  -12.6725 N   0  0  0  0  0  0  0  0  0  0  0  0
   -8.1691    4.3411  -11.2746 C   0  0  0  0  0  0  0  0  0  0  0  0
   -8.5756    3.1697  -10.6132 C   0  0  0  0  0  0  0  0  0  0  0  0
   -8.7076    3.2140   -9.2269 C   0  0  0  0  0  0  0  0  0  0  0  0
   -8.4088    4.3516   -8.4788 C   0  0  0  0  0  0  0  0  0  0  0  0
   -8.0301    5.5142   -9.1108 C   0  0  0  0  0  0  0  0  0  0  0  0
   -7.9265    5.5033  -10.5038 C   0  0  0  0  0  0  0  0  0  0  0  0
   -7.5478    6.6569  -11.0651 F   0  0  0  0  0  0  0  0  0  0  0  0
   -8.5541    4.0756   -7.0228 C   0  0  0  0  0  0  0  0  0  0  0  0
   -9.1043    2.7524   -7.0054 N   0  0  0  0  0  0  0  0  0  0  0  0
   -9.1586    2.1922   -8.2663 C   0  0  0  0  0  0  0  0  0  0  0  0
   -9.5572    1.0765   -8.5106 O   0  0  0  0  0  0  0  0  0  0  0  0
   -6.0236    5.1876  -15.6177 C   0  0  0  0  0  0  0  0  0  0  0  0
   -4.7217    5.6162  -15.2339 C   0  0  0  0  0  0  0  0  0  0  0  0
   -4.2301    5.9590  -13.8753 C   0  0  0  0  0  0  0  0  0  0  0  0
   -3.8823    5.6831  -16.2799 N   0  0  0  0  0  0  0  0  0  0  0  0
   -4.6595    5.3310  -17.3331 N   0  0  0  0  0  0  0  0  0  0  0  0
   -4.1101    5.3204  -18.6815 C   0  0  0  0  0  0  0  0  0  0  0  0
   -4.4076    6.5905  -19.4525 C   0  0  0  0  0  0  0  0  0  0  0  0
   -4.2405    7.8510  -18.8443 C   0  0  0  0  0  0  0  0  0  0  0  0
   -4.4740    9.0341  -19.5496 C   0  0  0  0  0  0  0  0  0  0  0  0
   -4.8640    8.9837  -20.8832 C   0  0  0  0  0  0  0  0  0  0  0  0
   -5.0142    7.7486  -21.5109 C   0  0  0  0  0  0  0  0  0  0  0  0
   -4.7804    6.5616  -20.8057 C   0  0  0  0  0  0  0  0  0  0  0  0
   -4.9250    5.0832  -21.6870 Cl  0  0  0  0  0  0  0  0  0  0  0  0
   -5.9385    4.9979  -16.9856 C   0  0  0  0  0  0  0  0  0  0  0  0
   -6.9165    4.5965  -17.8153 N   0  0  0  0  0  0  0  0  0  0  0  0
  1  2  1  0
  2  3  2  0
  3  4  1  0
  4  5  1  0
  5  6  2  0
  5  7  1  0
  7  8  1  0
  8  9  2  0
  9 10  1  0
 10 11  2  0
 11 12  1  0
 12 13  2  0
 13 14  1  0
 11 15  1  0
 15 16  1  0
 16 17  1  0
 17 18  2  0
  4 19  2  0
 19 20  1  0
 20 21  1  0
 20 22  2  0
 22 23  1  0
 23 24  1  0
 24 25  1  0
 25 26  2  0
 26 27  1  0
 27 28  2  0
 28 29  1  0
 29 30  2  0
 30 31  1  0
 23 32  1  0
 32 33  2  0
 33  2  1  0
 13  8  1  0
 32 19  1  0
 17 10  1  0
 30 25  1  0
M  END
>  <name>  (328) 
P116200

>  <alias>  (328) 
None

>  <smina_score_min>  (328) 
-9.037

>  <exports>  (328) 
['/opt/xchem-fragalysis-2/maxwin/BulkDock/OUTPUTS/openbind_xx01zvns2b_c2_elabs_1LOUTNY.sdf', '/opt/xchem-fragalysis-2/maxwin/BulkDock/OUTPUTS/openbind_xx01zvns2b_c2_elabs_1LSYIIV.sdf']

>  <tags>  (328) 
syndirella_placed,openbind_xx01zvns2b_c2_elabs,openbind_xx01zvns2b_c2_elabs_scored_6.2plus,syndirella_product,openbind_xx01zvns2b_c2_elabs_scored,openbind_xx01zvns2b_c2_elabs_scored_top80percent,BulkDock Fragalysis export

>  <subsites>  (328) 
1 - Z4590/B/203/1

>  <smiles>  (328) 
Cc1cc(C(=O)Nc2cc3c(cc2F)CNC3=O)c2c(C)nn(Cc3ccccc3Cl)c2n1

>  <HIPPO Pose ID>  (328) 
116200

>  <energy_score>  (328) 
-38.915888

>  <inchikey>  (328) 
DWSOQRACMHGGND-UHFFFAOYSA-N

>  <gnina_score_min>  (328) 
6.664

>  <gnina_score>  (328) 
6.687

>  <ref_mols>  (328) 
Z3556a

>  <HIPPO Compound ID>  (328) 
179440

>  <distance_score>  (328) 
0.408048

>  <rmsd(smina/fragmenstein)>  (328) 
0.685

>  <ref_pdb>  (328) 
Z3556a

>  <inspiration_score>  (328) 
None

$$$$
P116201
     RDKit          3D

 33 37  0  0  0  0  0  0  0  0999 V2000
   -9.1416    3.9766  -18.2003 C   0  0  0  0  0  0  0  0  0  0  0  0
   -8.0316    4.3852  -17.2695 C   0  0  0  0  0  0  0  0  0  0  0  0
   -8.2737    4.4243  -15.8948 C   0  0  0  0  0  0  0  0  0  0  0  0
   -7.2336    4.7946  -15.0443 C   0  0  0  0  0  0  0  0  0  0  0  0
   -7.4864    5.2755  -13.6776 C   0  0  0  0  0  0  0  0  0  0  0  0
   -7.3879    6.4287  -13.5190 O   0  0  0  0  0  0  0  0  0  0  0  0
   -7.7424    4.1440  -12.6601 N   0  0  0  0  0  0  0  0  0  0  0  0
   -8.0165    4.1994  -11.2914 C   0  0  0  0  0  0  0  0  0  0  0  0
   -7.8426    5.4252  -10.6116 C   0  0  0  0  0  0  0  0  0  0  0  0
   -8.0578    5.5420   -9.2366 C   0  0  0  0  0  0  0  0  0  0  0  0
   -8.4676    4.4175   -8.5548 C   0  0  0  0  0  0  0  0  0  0  0  0
   -8.6558    3.2094   -9.2300 C   0  0  0  0  0  0  0  0  0  0  0  0
   -8.4276    3.0645  -10.5920 C   0  0  0  0  0  0  0  0  0  0  0  0
   -9.2143    2.2539   -8.2606 C   0  0  0  0  0  0  0  0  0  0  0  0
   -9.6116    1.1383   -8.5177 O   0  0  0  0  0  0  0  0  0  0  0  0
   -9.3050    2.9172   -7.0501 N   0  0  0  0  0  0  0  0  0  0  0  0
  -10.0676    2.4279   -5.9315 C   0  0  0  0  0  0  0  0  0  0  0  0
   -8.8190    4.2717   -7.1147 C   0  0  0  0  0  0  0  0  0  0  0  0
   -5.9638    5.0205  -15.5915 C   0  0  0  0  0  0  0  0  0  0  0  0
   -4.6616    5.3484  -15.1351 C   0  0  0  0  0  0  0  0  0  0  0  0
   -4.1790    5.4564  -13.7359 C   0  0  0  0  0  0  0  0  0  0  0  0
   -3.8230    5.5874  -16.1512 N   0  0  0  0  0  0  0  0  0  0  0  0
   -4.6126    5.4959  -17.2536 N   0  0  0  0  0  0  0  0  0  0  0  0
   -4.3212    6.3844  -18.3651 C   0  0  0  0  0  0  0  0  0  0  0  0
   -3.9028    5.7467  -19.6510 C   0  0  0  0  0  0  0  0  0  0  0  0
   -4.8669    5.6140  -20.6624 C   0  0  0  0  0  0  0  0  0  0  0  0
   -4.4966    5.2478  -21.9508 C   0  0  0  0  0  0  0  0  0  0  0  0
   -3.1660    4.9581  -22.2378 C   0  0  0  0  0  0  0  0  0  0  0  0
   -2.2097    5.0298  -21.2282 C   0  0  0  0  0  0  0  0  0  0  0  0
   -2.5711    5.4232  -19.9388 C   0  0  0  0  0  0  0  0  0  0  0  0
   -1.3163    5.5789  -18.7657 Cl  0  0  0  0  0  0  0  0  0  0  0  0
   -5.8713    5.0152  -16.9728 C   0  0  0  0  0  0  0  0  0  0  0  0
   -6.8569    4.7406  -17.8493 N   0  0  0  0  0  0  0  0  0  0  0  0
  1  2  1  0
  2  3  2  0
  3  4  1  0
  4  5  1  0
  5  6  2  0
  5  7  1  0
  7  8  1  0
  8  9  2  0
  9 10  1  0
 10 11  2  0
 11 12  1  0
 12 13  2  0
 12 14  1  0
 14 15  2  0
 14 16  1  0
 16 17  1  0
 16 18  1  0
  4 19  2  0
 19 20  1  0
 20 21  1  0
 20 22  2  0
 22 23  1  0
 23 24  1  0
 24 25  1  0
 25 26  2  0
 26 27  1  0
 27 28  2  0
 28 29  1  0
 29 30  2  0
 30 31  1  0
 23 32  1  0
 32 33  2  0
 33  2  1  0
 13  8  1  0
 32 19  1  0
 18 11  1  0
 30 25  1  0
M  END
>  <name>  (329) 
P116201

>  <alias>  (329) 
None

>  <smina_score_min>  (329) 
-9.581

>  <exports>  (329) 
['/opt/xchem-fragalysis-2/maxwin/BulkDock/OUTPUTS/openbind_xx01zvns2b_c2_elabs_1LOUTNY.sdf', '/opt/xchem-fragalysis-2/maxwin/BulkDock/OUTPUTS/openbind_xx01zvns2b_c2_elabs_1LSYIIV.sdf']

>  <tags>  (329) 
syndirella_placed,openbind_xx01zvns2b_c2_elabs,openbind_xx01zvns2b_c2_elabs_scored_6.2plus,syndirella_product,openbind_xx01zvns2b_c2_elabs_scored,openbind_xx01zvns2b_c2_elabs_scored_top80percent,BulkDock Fragalysis export

>  <subsites>  (329) 
1 - Z4590/B/203/1

>  <smiles>  (329) 
Cc1cc(C(=O)Nc2ccc3c(c2)C(=O)N(C)C3)c2c(C)nn(Cc3ccccc3Cl)c2n1

>  <HIPPO Pose ID>  (329) 
116201

>  <energy_score>  (329) 
-11.083918

>  <inchikey>  (329) 
WRPYDJQGELNDOB-UHFFFAOYSA-N

>  <gnina_score_min>  (329) 
6.494

>  <gnina_score>  (329) 
6.536

>  <ref_mols>  (329) 
Z3556a

>  <HIPPO Compound ID>  (329) 
179444

>  <distance_score>  (329) 
0.539295

>  <rmsd(smina/fragmenstein)>  (329) 
0.568

>  <ref_pdb>  (329) 
Z3556a

>  <inspiration_score>  (329) 
None

$$$$
P116202
     RDKit          3D

 33 37  0  0  0  0  0  0  0  0999 V2000
  -10.5489    2.6499   -5.4432 C   0  0  0  0  0  0  0  0  0  0  0  0
   -9.5635    2.0248   -6.4180 C   0  0  0  0  0  0  0  0  0  0  0  0
   -9.5331    2.7968   -7.6396 N   0  0  0  0  0  0  0  0  0  0  0  0
   -8.8068    4.0738   -7.5229 C   0  0  0  0  0  0  0  0  0  0  0  0
   -8.4377    4.3714   -8.9385 C   0  0  0  0  0  0  0  0  0  0  0  0
   -8.1157    5.5721   -9.5314 C   0  0  0  0  0  0  0  0  0  0  0  0
   -7.8605    5.5656  -10.9025 C   0  0  0  0  0  0  0  0  0  0  0  0
   -7.9089    4.3706  -11.6458 C   0  0  0  0  0  0  0  0  0  0  0  0
   -7.6435    4.3777  -13.0095 N   0  0  0  0  0  0  0  0  0  0  0  0
   -7.3025    5.5425  -13.9556 C   0  0  0  0  0  0  0  0  0  0  0  0
   -7.1143    6.6708  -13.7288 O   0  0  0  0  0  0  0  0  0  0  0  0
   -7.1290    5.0797  -15.3350 C   0  0  0  0  0  0  0  0  0  0  0  0
   -8.2084    4.6053  -16.0803 C   0  0  0  0  0  0  0  0  0  0  0  0
   -8.0320    4.3951  -17.4461 C   0  0  0  0  0  0  0  0  0  0  0  0
   -9.1960    3.9300  -18.2756 C   0  0  0  0  0  0  0  0  0  0  0  0
   -6.8678    4.6093  -18.1051 N   0  0  0  0  0  0  0  0  0  0  0  0
   -5.8555    5.0206  -17.3196 C   0  0  0  0  0  0  0  0  0  0  0  0
   -5.8904    5.2520  -15.9577 C   0  0  0  0  0  0  0  0  0  0  0  0
   -4.5647    5.6289  -15.6119 C   0  0  0  0  0  0  0  0  0  0  0  0
   -4.0247    5.9678  -14.2711 C   0  0  0  0  0  0  0  0  0  0  0  0
   -3.7556    5.6466  -16.6829 N   0  0  0  0  0  0  0  0  0  0  0  0
   -4.5880    5.3461  -17.7111 N   0  0  0  0  0  0  0  0  0  0  0  0
   -4.1184    5.4357  -19.0846 C   0  0  0  0  0  0  0  0  0  0  0  0
   -4.4068    6.7848  -19.7200 C   0  0  0  0  0  0  0  0  0  0  0  0
   -4.2257    7.9800  -18.9946 C   0  0  0  0  0  0  0  0  0  0  0  0
   -4.4599    9.2288  -19.5771 C   0  0  0  0  0  0  0  0  0  0  0  0
   -4.8620    9.3137  -20.9048 C   0  0  0  0  0  0  0  0  0  0  0  0
   -5.0210    8.1481  -21.6502 C   0  0  0  0  0  0  0  0  0  0  0  0
   -4.7885    6.8962  -21.0664 C   0  0  0  0  0  0  0  0  0  0  0  0
   -4.9480    5.5156  -22.0868 Cl  0  0  0  0  0  0  0  0  0  0  0  0
   -8.2154    3.1592  -11.0272 C   0  0  0  0  0  0  0  0  0  0  0  0
   -8.4902    3.1841   -9.6744 C   0  0  0  0  0  0  0  0  0  0  0  0
   -8.9001    2.0737   -8.7613 C   0  0  0  0  0  0  0  0  0  0  0  0
  1  2  1  0
  2  3  1  0
  3  4  1  0
  4  5  1  0
  5  6  2  0
  6  7  1  0
  7  8  2  0
  8  9  1  0
  9 10  1  0
 10 11  2  0
 10 12  1  0
 12 13  2  0
 13 14  1  0
 14 15  1  0
 14 16  2  0
 16 17  1  0
 17 18  2  0
 18 19  1  0
 19 20  1  0
 19 21  2  0
 21 22  1  0
 22 23  1  0
 23 24  1  0
 24 25  2  0
 25 26  1  0
 26 27  2  0
 27 28  1  0
 28 29  2  0
 29 30  1  0
  8 31  1  0
 31 32  2  0
 32 33  1  0
 33  3  1  0
 32  5  1  0
 18 12  1  0
 29 24  1  0
 22 17  1  0
M  END
>  <name>  (330) 
P116202

>  <alias>  (330) 
None

>  <smina_score_min>  (330) 
-9.031

>  <exports>  (330) 
['/opt/xchem-fragalysis-2/maxwin/BulkDock/OUTPUTS/openbind_xx01zvns2b_c2_elabs_1LOUTNY.sdf', '/opt/xchem-fragalysis-2/maxwin/BulkDock/OUTPUTS/openbind_xx01zvns2b_c2_elabs_1LSYIIV.sdf']

>  <tags>  (330) 
syndirella_placed,openbind_xx01zvns2b_c2_elabs,openbind_xx01zvns2b_c2_elabs_scored_6.2plus,syndirella_product,openbind_xx01zvns2b_c2_elabs_scored,openbind_xx01zvns2b_c2_elabs_scored_top80percent,BulkDock Fragalysis export

>  <subsites>  (330) 
1 - Z4590/B/203/1

>  <smiles>  (330) 
CCN1Cc2ccc(NC(=O)c3cc(C)nc4c3c(C)nn4Cc3ccccc3Cl)cc2C1

>  <HIPPO Pose ID>  (330) 
116202

>  <energy_score>  (330) 
-42.358462

>  <inchikey>  (330) 
JANTYCXNBCEOEJ-UHFFFAOYSA-N

>  <gnina_score_min>  (330) 
6.649

>  <gnina_score>  (330) 
6.649

>  <ref_mols>  (330) 
Z3556a

>  <HIPPO Compound ID>  (330) 
179445

>  <distance_score>  (330) 
0.534435

>  <rmsd(smina/fragmenstein)>  (330) 
0.512

>  <ref_pdb>  (330) 
Z3556a

>  <inspiration_score>  (330) 
None

$$$$
P116204
     RDKit          3D

 33 38  0  0  0  0  0  0  0  0999 V2000
   -9.3182    3.8963  -18.1734 C   0  0  0  0  0  0  0  0  0  0  0  0
   -8.1571    4.3347  -17.3274 C   0  0  0  0  0  0  0  0  0  0  0  0
   -8.3140    4.5026  -15.9559 C   0  0  0  0  0  0  0  0  0  0  0  0
   -7.2253    4.9465  -15.2051 C   0  0  0  0  0  0  0  0  0  0  0  0
   -7.4136    5.4297  -13.8273 C   0  0  0  0  0  0  0  0  0  0  0  0
   -7.2639    6.5759  -13.6553 O   0  0  0  0  0  0  0  0  0  0  0  0
   -7.8098    4.3100  -12.8356 N   0  0  0  0  0  0  0  0  0  0  0  0
   -8.0052    4.3502  -11.4520 C   0  0  0  0  0  0  0  0  0  0  0  0
   -7.7815    5.5573  -10.7559 C   0  0  0  0  0  0  0  0  0  0  0  0
   -7.9611    5.6545   -9.3728 C   0  0  0  0  0  0  0  0  0  0  0  0
   -8.3798    4.5290   -8.6973 C   0  0  0  0  0  0  0  0  0  0  0  0
   -8.6094    3.3370   -9.3866 C   0  0  0  0  0  0  0  0  0  0  0  0
   -8.4231    3.2120  -10.7574 C   0  0  0  0  0  0  0  0  0  0  0  0
   -9.1512    2.3731   -8.4169 C   0  0  0  0  0  0  0  0  0  0  0  0
   -9.5604    1.2644   -8.6825 O   0  0  0  0  0  0  0  0  0  0  0  0
   -9.1950    3.0159   -7.1942 N   0  0  0  0  0  0  0  0  0  0  0  0
   -9.8755    2.4946   -6.0385 C   0  0  0  0  0  0  0  0  0  0  0  0
   -8.6989    4.3667   -7.2509 C   0  0  0  0  0  0  0  0  0  0  0  0
   -5.9889    5.1265  -15.8444 C   0  0  0  0  0  0  0  0  0  0  0  0
   -4.6609    5.4574  -15.5139 C   0  0  0  0  0  0  0  0  0  0  0  0
   -4.1486    5.7071  -14.0652 C   0  0  0  0  0  0  0  0  0  0  0  0
   -4.1568    7.1140  -13.5251 C   0  0  0  0  0  0  0  0  0  0  0  0
   -2.8523    6.4451  -13.8404 C   0  0  0  0  0  0  0  0  0  0  0  0
   -3.8398    5.4594  -16.5651 N   0  0  0  0  0  0  0  0  0  0  0  0
   -4.6568    5.2043  -17.6317 N   0  0  0  0  0  0  0  0  0  0  0  0
   -4.1301    5.2443  -18.9575 C   0  0  0  0  0  0  0  0  0  0  0  0
   -4.9674    5.2555  -20.0818 C   0  0  0  0  0  0  0  0  0  0  0  0
   -4.4231    5.3020  -21.3687 C   0  0  0  0  0  0  0  0  0  0  0  0
   -3.0419    5.3205  -21.5449 C   0  0  0  0  0  0  0  0  0  0  0  0
   -2.2016    5.3087  -20.4335 C   0  0  0  0  0  0  0  0  0  0  0  0
   -2.7398    5.2835  -19.1444 C   0  0  0  0  0  0  0  0  0  0  0  0
   -5.9590    4.9391  -17.2184 C   0  0  0  0  0  0  0  0  0  0  0  0
   -7.0028    4.5606  -17.9843 N   0  0  0  0  0  0  0  0  0  0  0  0
  1  2  1  0
  2  3  2  0
  3  4  1  0
  4  5  1  0
  5  6  2  0
  5  7  1  0
  7  8  1  0
  8  9  2  0
  9 10  1  0
 10 11  2  0
 11 12  1  0
 12 13  2  0
 12 14  1  0
 14 15  2  0
 14 16  1  0
 16 17  1  0
 16 18  1  0
  4 19  2  0
 19 20  1  0
 20 21  1  0
 21 22  1  0
 22 23  1  0
 20 24  2  0
 24 25  1  0
 25 26  1  0
 26 27  2  0
 27 28  1  0
 28 29  2  0
 29 30  1  0
 30 31  2  0
 25 32  1  0
 32 33  2  0
 33  2  1  0
 13  8  1  0
 32 19  1  0
 18 11  1  0
 23 21  1  0
 31 26  1  0
M  END
>  <name>  (331) 
P116204

>  <alias>  (331) 
None

>  <smina_score_min>  (331) 
-9.006

>  <exports>  (331) 
['/opt/xchem-fragalysis-2/maxwin/BulkDock/OUTPUTS/openbind_xx01zvns2b_c2_elabs_1LOUTNY.sdf', '/opt/xchem-fragalysis-2/maxwin/BulkDock/OUTPUTS/openbind_xx01zvns2b_c2_elabs_1LSYIIV.sdf']

>  <tags>  (331) 
syndirella_placed,openbind_xx01zvns2b_c2_elabs,openbind_xx01zvns2b_c2_elabs_scored_6.2plus,syndirella_product,openbind_xx01zvns2b_c2_elabs_scored,openbind_xx01zvns2b_c2_elabs_scored_top80percent,BulkDock Fragalysis export

>  <subsites>  (331) 
1 - Z4590/B/203/1

>  <smiles>  (331) 
Cc1cc(C(=O)Nc2ccc3c(c2)C(=O)N(C)C3)c2c(C3CC3)nn(-c3ccccc3)c2n1

>  <HIPPO Pose ID>  (331) 
116204

>  <energy_score>  (331) 
-42.449339

>  <inchikey>  (331) 
MMAJYVIJMDAQIB-UHFFFAOYSA-N

>  <gnina_score_min>  (331) 
6.446

>  <gnina_score>  (331) 
6.431

>  <ref_mols>  (331) 
Z3556a

>  <HIPPO Compound ID>  (331) 
179449

>  <distance_score>  (331) 
0.463557

>  <rmsd(smina/fragmenstein)>  (331) 
0.647

>  <ref_pdb>  (331) 
Z3556a

>  <inspiration_score>  (331) 
None

$$$$
P116205
     RDKit          3D

 33 38  0  0  0  0  0  0  0  0999 V2000
   -9.3410    3.8833  -18.0935 C   0  0  0  0  0  0  0  0  0  0  0  0
   -8.1864    4.3181  -17.2368 C   0  0  0  0  0  0  0  0  0  0  0  0
   -8.3433    4.4715  -15.8615 C   0  0  0  0  0  0  0  0  0  0  0  0
   -7.2596    4.9196  -15.1048 C   0  0  0  0  0  0  0  0  0  0  0  0
   -7.4360    5.3976  -13.7185 C   0  0  0  0  0  0  0  0  0  0  0  0
   -7.1465    6.5146  -13.5280 O   0  0  0  0  0  0  0  0  0  0  0  0
   -7.9588    4.3131  -12.7392 N   0  0  0  0  0  0  0  0  0  0  0  0
   -8.1381    4.3517  -11.3406 C   0  0  0  0  0  0  0  0  0  0  0  0
   -8.5565    3.1889  -10.6708 C   0  0  0  0  0  0  0  0  0  0  0  0
   -8.6859    3.2424   -9.2844 C   0  0  0  0  0  0  0  0  0  0  0  0
   -8.3776    4.3821   -8.5437 C   0  0  0  0  0  0  0  0  0  0  0  0
   -7.9908    5.5376   -9.1842 C   0  0  0  0  0  0  0  0  0  0  0  0
   -7.8871    5.5168  -10.5776 C   0  0  0  0  0  0  0  0  0  0  0  0
   -7.5118    6.6667  -11.1487 F   0  0  0  0  0  0  0  0  0  0  0  0
   -8.5239    4.1160   -7.0857 C   0  0  0  0  0  0  0  0  0  0  0  0
   -9.0828    2.7964   -7.0598 N   0  0  0  0  0  0  0  0  0  0  0  0
   -9.1407    2.2287   -8.3170 C   0  0  0  0  0  0  0  0  0  0  0  0
   -9.5419    1.1126   -8.5545 O   0  0  0  0  0  0  0  0  0  0  0  0
   -6.0265    5.1166  -15.7514 C   0  0  0  0  0  0  0  0  0  0  0  0
   -4.7020    5.4644  -15.4228 C   0  0  0  0  0  0  0  0  0  0  0  0
   -4.1936    5.7436  -13.9801 C   0  0  0  0  0  0  0  0  0  0  0  0
   -4.1334    4.6067  -12.9905 C   0  0  0  0  0  0  0  0  0  0  0  0
   -2.8639    5.1885  -13.5379 C   0  0  0  0  0  0  0  0  0  0  0  0
   -3.8829    5.4932  -16.4752 N   0  0  0  0  0  0  0  0  0  0  0  0
   -4.6951    5.2178  -17.5399 N   0  0  0  0  0  0  0  0  0  0  0  0
   -4.1661    5.2485  -18.8657 C   0  0  0  0  0  0  0  0  0  0  0  0
   -2.7754    5.2925  -19.0499 C   0  0  0  0  0  0  0  0  0  0  0  0
   -2.2342    5.3032  -20.3380 C   0  0  0  0  0  0  0  0  0  0  0  0
   -3.0720    5.2979  -21.4514 C   0  0  0  0  0  0  0  0  0  0  0  0
   -4.4537    5.2760  -21.2783 C   0  0  0  0  0  0  0  0  0  0  0  0
   -5.0009    5.2427  -19.9921 C   0  0  0  0  0  0  0  0  0  0  0  0
   -5.9944    4.9380  -17.1263 C   0  0  0  0  0  0  0  0  0  0  0  0
   -7.0340    4.5536  -17.8936 N   0  0  0  0  0  0  0  0  0  0  0  0
  1  2  1  0
  2  3  2  0
  3  4  1  0
  4  5  1  0
  5  6  2  0
  5  7  1  0
  7  8  1  0
  8  9  2  0
  9 10  1  0
 10 11  2  0
 11 12  1  0
 12 13  2  0
 13 14  1  0
 11 15  1  0
 15 16  1  0
 16 17  1  0
 17 18  2  0
  4 19  2  0
 19 20  1  0
 20 21  1  0
 21 22  1  0
 22 23  1  0
 20 24  2  0
 24 25  1  0
 25 26  1  0
 26 27  2  0
 27 28  1  0
 28 29  2  0
 29 30  1  0
 30 31  2  0
 25 32  1  0
 32 33  2  0
 33  2  1  0
 13  8  1  0
 32 19  1  0
 17 10  1  0
 23 21  1  0
 31 26  1  0
M  END
>  <name>  (332) 
P116205

>  <alias>  (332) 
None

>  <smina_score_min>  (332) 
-9.324

>  <exports>  (332) 
['/opt/xchem-fragalysis-2/maxwin/BulkDock/OUTPUTS/openbind_xx01zvns2b_c2_elabs_1LOUTNY.sdf', '/opt/xchem-fragalysis-2/maxwin/BulkDock/OUTPUTS/openbind_xx01zvns2b_c2_elabs_1LSYIIV.sdf']

>  <tags>  (332) 
syndirella_placed,openbind_xx01zvns2b_c2_elabs,openbind_xx01zvns2b_c2_elabs_scored_6.2plus,syndirella_product,openbind_xx01zvns2b_c2_elabs_scored,openbind_xx01zvns2b_c2_elabs_scored_top80percent,BulkDock Fragalysis export

>  <subsites>  (332) 
1 - Z4590/B/203/1

>  <smiles>  (332) 
Cc1cc(C(=O)Nc2cc3c(cc2F)CNC3=O)c2c(C3CC3)nn(-c3ccccc3)c2n1

>  <HIPPO Pose ID>  (332) 
116205

>  <energy_score>  (332) 
-45.1849

>  <inchikey>  (332) 
RTGZJZGOGLUCMP-UHFFFAOYSA-N

>  <gnina_score_min>  (332) 
6.527

>  <gnina_score>  (332) 
6.602

>  <ref_mols>  (332) 
Z3556a

>  <HIPPO Compound ID>  (332) 
179453

>  <distance_score>  (332) 
0.378296

>  <rmsd(smina/fragmenstein)>  (332) 
0.775

>  <ref_pdb>  (332) 
Z3556a

>  <inspiration_score>  (332) 
None

$$$$
P116206
     RDKit          3D

 33 38  0  0  0  0  0  0  0  0999 V2000
   -9.2903    3.9047  -18.2489 C   0  0  0  0  0  0  0  0  0  0  0  0
   -8.1310    4.3533  -17.4061 C   0  0  0  0  0  0  0  0  0  0  0  0
   -8.3028    4.5530  -16.0429 C   0  0  0  0  0  0  0  0  0  0  0  0
   -7.2210    5.0106  -15.2917 C   0  0  0  0  0  0  0  0  0  0  0  0
   -7.4321    5.4761  -13.9157 C   0  0  0  0  0  0  0  0  0  0  0  0
   -7.4167    6.6279  -13.7283 O   0  0  0  0  0  0  0  0  0  0  0  0
   -7.7141    4.3087  -12.9470 N   0  0  0  0  0  0  0  0  0  0  0  0
   -7.9357    4.3074  -11.5708 C   0  0  0  0  0  0  0  0  0  0  0  0
   -7.9231    5.5162  -10.8456 C   0  0  0  0  0  0  0  0  0  0  0  0
   -8.1889    5.5368   -9.4752 C   0  0  0  0  0  0  0  0  0  0  0  0
   -8.4613    4.3299   -8.8672 C   0  0  0  0  0  0  0  0  0  0  0  0
   -8.4679    3.1225   -9.5632 C   0  0  0  0  0  0  0  0  0  0  0  0
   -8.1978    3.0937  -10.9230 C   0  0  0  0  0  0  0  0  0  0  0  0
   -8.8458    2.0135   -8.6392 C   0  0  0  0  0  0  0  0  0  0  0  0
   -9.1189    2.7205   -7.3994 N   0  0  0  0  0  0  0  0  0  0  0  0
   -9.8630    2.1037   -6.3355 C   0  0  0  0  0  0  0  0  0  0  0  0
   -8.8928    4.0771   -7.4879 C   0  0  0  0  0  0  0  0  0  0  0  0
   -9.0724    4.9434   -6.6515 O   0  0  0  0  0  0  0  0  0  0  0  0
   -5.9781    5.1758  -15.9132 C   0  0  0  0  0  0  0  0  0  0  0  0
   -4.6555    5.5093  -15.5710 C   0  0  0  0  0  0  0  0  0  0  0  0
   -4.1656    5.7974  -14.1229 C   0  0  0  0  0  0  0  0  0  0  0  0
   -2.9367    6.6432  -13.9011 C   0  0  0  0  0  0  0  0  0  0  0  0
   -4.2923    7.1964  -13.5777 C   0  0  0  0  0  0  0  0  0  0  0  0
   -3.8194    5.4761  -16.6098 N   0  0  0  0  0  0  0  0  0  0  0  0
   -4.6267    5.2202  -17.6836 N   0  0  0  0  0  0  0  0  0  0  0  0
   -4.0893    5.2525  -19.0046 C   0  0  0  0  0  0  0  0  0  0  0  0
   -2.6979    5.2888  -19.1809 C   0  0  0  0  0  0  0  0  0  0  0  0
   -2.1509    5.3116  -20.4661 C   0  0  0  0  0  0  0  0  0  0  0  0
   -2.9830    5.3230  -21.5837 C   0  0  0  0  0  0  0  0  0  0  0  0
   -4.3655    5.3080  -21.4176 C   0  0  0  0  0  0  0  0  0  0  0  0
   -4.9190    5.2645  -20.1349 C   0  0  0  0  0  0  0  0  0  0  0  0
   -5.9325    4.9571  -17.2820 C   0  0  0  0  0  0  0  0  0  0  0  0
   -6.9661    4.5570  -18.0524 N   0  0  0  0  0  0  0  0  0  0  0  0
  1  2  1  0
  2  3  2  0
  3  4  1  0
  4  5  1  0
  5  6  2  0
  5  7  1  0
  7  8  1  0
  8  9  2  0
  9 10  1  0
 10 11  2  0
 11 12  1  0
 12 13  2  0
 12 14  1  0
 14 15  1  0
 15 16  1  0
 15 17  1  0
 17 18  2  0
  4 19  2  0
 19 20  1  0
 20 21  1  0
 21 22  1  0
 22 23  1  0
 20 24  2  0
 24 25  1  0
 25 26  1  0
 26 27  2  0
 27 28  1  0
 28 29  2  0
 29 30  1  0
 30 31  2  0
 25 32  1  0
 32 33  2  0
 33  2  1  0
 13  8  1  0
 32 19  1  0
 17 11  1  0
 23 21  1  0
 31 26  1  0
M  END
>  <name>  (333) 
P116206

>  <alias>  (333) 
None

>  <smina_score_min>  (333) 
-9.28

>  <exports>  (333) 
['/opt/xchem-fragalysis-2/maxwin/BulkDock/OUTPUTS/openbind_xx01zvns2b_c2_elabs_1LOUTNY.sdf', '/opt/xchem-fragalysis-2/maxwin/BulkDock/OUTPUTS/openbind_xx01zvns2b_c2_elabs_1LSYIIV.sdf']

>  <tags>  (333) 
syndirella_placed,openbind_xx01zvns2b_c2_elabs,openbind_xx01zvns2b_c2_elabs_scored_6.2plus,syndirella_product,openbind_xx01zvns2b_c2_elabs_scored,openbind_xx01zvns2b_c2_elabs_scored_top80percent,BulkDock Fragalysis export

>  <subsites>  (333) 
1 - Z4590/B/203/1

>  <smiles>  (333) 
Cc1cc(C(=O)Nc2ccc3c(c2)CN(C)C3=O)c2c(C3CC3)nn(-c3ccccc3)c2n1

>  <HIPPO Pose ID>  (333) 
116206

>  <energy_score>  (333) 
-64.548778

>  <inchikey>  (333) 
CXICJYLHQBRJLF-UHFFFAOYSA-N

>  <gnina_score_min>  (333) 
6.547

>  <gnina_score>  (333) 
6.44

>  <ref_mols>  (333) 
Z3556a

>  <HIPPO Compound ID>  (333) 
179454

>  <distance_score>  (333) 
0.448695

>  <rmsd(smina/fragmenstein)>  (333) 
0.571

>  <ref_pdb>  (333) 
Z3556a

>  <inspiration_score>  (333) 
None

$$$$
P116207
     RDKit          3D

 33 38  0  0  0  0  0  0  0  0999 V2000
   -9.3312    3.8839  -18.0508 C   0  0  0  0  0  0  0  0  0  0  0  0
   -8.1851    4.3245  -17.1862 C   0  0  0  0  0  0  0  0  0  0  0  0
   -8.3432    4.4626  -15.8093 C   0  0  0  0  0  0  0  0  0  0  0  0
   -7.2621    4.9075  -15.0458 C   0  0  0  0  0  0  0  0  0  0  0  0
   -7.4398    5.3521  -13.6468 C   0  0  0  0  0  0  0  0  0  0  0  0
   -7.1567    6.4652  -13.4256 O   0  0  0  0  0  0  0  0  0  0  0  0
   -7.9579    4.2396  -12.6987 N   0  0  0  0  0  0  0  0  0  0  0  0
   -8.1387    4.2396  -11.3083 C   0  0  0  0  0  0  0  0  0  0  0  0
   -7.8641    5.4187  -10.5777 C   0  0  0  0  0  0  0  0  0  0  0  0
   -7.9456    5.4532   -9.1822 C   0  0  0  0  0  0  0  0  0  0  0  0
   -8.3264    4.2927   -8.5467 C   0  0  0  0  0  0  0  0  0  0  0  0
   -8.6512    3.1438   -9.2481 C   0  0  0  0  0  0  0  0  0  0  0  0
   -8.5538    3.0807  -10.6344 C   0  0  0  0  0  0  0  0  0  0  0  0
   -9.0752    2.1585   -8.2439 C   0  0  0  0  0  0  0  0  0  0  0  0
   -9.5783    1.0779   -8.4578 O   0  0  0  0  0  0  0  0  0  0  0  0
   -8.8934    2.7310   -7.0223 N   0  0  0  0  0  0  0  0  0  0  0  0
   -8.4530    4.0092   -7.1170 C   0  0  0  0  0  0  0  0  0  0  0  0
   -8.1943    4.7910   -6.2217 O   0  0  0  0  0  0  0  0  0  0  0  0
   -6.0297    5.1171  -15.6899 C   0  0  0  0  0  0  0  0  0  0  0  0
   -4.7053    5.4615  -15.3576 C   0  0  0  0  0  0  0  0  0  0  0  0
   -4.1946    5.7205  -13.9121 C   0  0  0  0  0  0  0  0  0  0  0  0
   -4.1378    4.5712  -12.9365 C   0  0  0  0  0  0  0  0  0  0  0  0
   -2.8667    5.1532  -13.4796 C   0  0  0  0  0  0  0  0  0  0  0  0
   -3.8870    5.5047  -16.4099 N   0  0  0  0  0  0  0  0  0  0  0  0
   -4.6956    5.2322  -17.4775 N   0  0  0  0  0  0  0  0  0  0  0  0
   -4.1623    5.2601  -18.8020 C   0  0  0  0  0  0  0  0  0  0  0  0
   -2.7709    5.3034  -18.9809 C   0  0  0  0  0  0  0  0  0  0  0  0
   -2.2244    5.3081  -20.2667 C   0  0  0  0  0  0  0  0  0  0  0  0
   -3.0576    5.2972  -21.3835 C   0  0  0  0  0  0  0  0  0  0  0  0
   -4.4399    5.2762  -21.2162 C   0  0  0  0  0  0  0  0  0  0  0  0
   -4.9926    5.2492  -19.9319 C   0  0  0  0  0  0  0  0  0  0  0  0
   -5.9964    4.9535  -17.0672 C   0  0  0  0  0  0  0  0  0  0  0  0
   -7.0355    4.5773  -17.8392 N   0  0  0  0  0  0  0  0  0  0  0  0
  1  2  1  0
  2  3  2  0
  3  4  1  0
  4  5  1  0
  5  6  2  0
  5  7  1  0
  7  8  1  0
  8  9  2  0
  9 10  1  0
 10 11  2  0
 11 12  1  0
 12 13  2  0
 12 14  1  0
 14 15  2  0
 14 16  1  0
 16 17  1  0
 17 18  2  0
  4 19  2  0
 19 20  1  0
 20 21  1  0
 21 22  1  0
 22 23  1  0
 20 24  2  0
 24 25  1  0
 25 26  1  0
 26 27  2  0
 27 28  1  0
 28 29  2  0
 29 30  1  0
 30 31  2  0
 25 32  1  0
 32 33  2  0
 33  2  1  0
 13  8  1  0
 32 19  1  0
 17 11  1  0
 23 21  1  0
 31 26  1  0
M  END
>  <name>  (334) 
P116207

>  <alias>  (334) 
None

>  <smina_score_min>  (334) 
-9.505

>  <exports>  (334) 
['/opt/xchem-fragalysis-2/maxwin/BulkDock/OUTPUTS/openbind_xx01zvns2b_c2_elabs_1LOUTNY.sdf', '/opt/xchem-fragalysis-2/maxwin/BulkDock/OUTPUTS/openbind_xx01zvns2b_c2_elabs_1LSYIIV.sdf']

>  <tags>  (334) 
syndirella_placed,openbind_xx01zvns2b_c2_elabs,openbind_xx01zvns2b_c2_elabs_scored_6.2plus,syndirella_product,openbind_xx01zvns2b_c2_elabs_scored,openbind_xx01zvns2b_c2_elabs_scored_top80percent,BulkDock Fragalysis export

>  <subsites>  (334) 
1 - Z4590/B/203/1

>  <smiles>  (334) 
Cc1cc(C(=O)Nc2ccc3c(c2)C(=O)NC3=O)c2c(C3CC3)nn(-c3ccccc3)c2n1

>  <HIPPO Pose ID>  (334) 
116207

>  <energy_score>  (334) 
-34.357172

>  <inchikey>  (334) 
JKGBAQAWMWSMFR-UHFFFAOYSA-N

>  <gnina_score_min>  (334) 
6.483

>  <gnina_score>  (334) 
6.47

>  <ref_mols>  (334) 
Z3556a

>  <HIPPO Compound ID>  (334) 
179455

>  <distance_score>  (334) 
0.34725

>  <rmsd(smina/fragmenstein)>  (334) 
0.517

>  <ref_pdb>  (334) 
Z3556a

>  <inspiration_score>  (334) 
None

$$$$
P116208
     RDKit          3D

 33 37  0  0  0  0  0  0  0  0999 V2000
   -9.3832    2.9391  -18.1466 C   0  0  0  0  0  0  0  0  0  0  0  0
   -9.1999    4.4046  -17.9198 C   0  0  0  0  0  0  0  0  0  0  0  0
   -7.9964    4.6457  -17.0518 C   0  0  0  0  0  0  0  0  0  0  0  0
   -8.1284    4.7265  -15.6664 C   0  0  0  0  0  0  0  0  0  0  0  0
   -6.9987    5.0124  -14.8997 C   0  0  0  0  0  0  0  0  0  0  0  0
   -7.1282    5.3942  -13.4791 C   0  0  0  0  0  0  0  0  0  0  0  0
   -6.7830    6.4798  -13.2131 O   0  0  0  0  0  0  0  0  0  0  0  0
   -7.7568    4.2916  -12.5862 N   0  0  0  0  0  0  0  0  0  0  0  0
   -7.9948    4.2650  -11.2059 C   0  0  0  0  0  0  0  0  0  0  0  0
   -7.6813    5.4099  -10.4375 C   0  0  0  0  0  0  0  0  0  0  0  0
   -7.8151    5.4207   -9.0471 C   0  0  0  0  0  0  0  0  0  0  0  0
   -8.2719    4.2663   -8.4536 C   0  0  0  0  0  0  0  0  0  0  0  0
   -8.6283    3.1496   -9.1916 C   0  0  0  0  0  0  0  0  0  0  0  0
   -8.5000    3.1164  -10.5769 C   0  0  0  0  0  0  0  0  0  0  0  0
   -9.0944    2.1517   -8.2184 C   0  0  0  0  0  0  0  0  0  0  0  0
   -9.5994    1.0794   -8.4658 O   0  0  0  0  0  0  0  0  0  0  0  0
   -8.9299    2.6932   -6.9798 N   0  0  0  0  0  0  0  0  0  0  0  0
   -8.4364    3.9540   -7.0345 C   0  0  0  0  0  0  0  0  0  0  0  0
   -8.1571    4.7008   -6.1156 O   0  0  0  0  0  0  0  0  0  0  0  0
   -5.7636    5.1604  -15.5571 C   0  0  0  0  0  0  0  0  0  0  0  0
   -4.4034    5.3774  -15.2252 C   0  0  0  0  0  0  0  0  0  0  0  0
   -3.8005    5.5185  -13.8753 C   0  0  0  0  0  0  0  0  0  0  0  0
   -3.6132    5.3955  -16.3079 N   0  0  0  0  0  0  0  0  0  0  0  0
   -4.4757    5.3254  -17.3652 N   0  0  0  0  0  0  0  0  0  0  0  0
   -3.9914    5.4698  -18.6898 C   0  0  0  0  0  0  0  0  0  0  0  0
   -2.6527    5.1612  -18.9711 C   0  0  0  0  0  0  0  0  0  0  0  0
   -2.1719    5.2537  -20.2800 C   0  0  0  0  0  0  0  0  0  0  0  0
   -3.0118    5.6682  -21.3125 C   0  0  0  0  0  0  0  0  0  0  0  0
   -4.3284    6.0222  -21.0286 C   0  0  0  0  0  0  0  0  0  0  0  0
   -4.8075    5.9388  -19.7209 C   0  0  0  0  0  0  0  0  0  0  0  0
   -6.0196    6.4572  -19.4839 F   0  0  0  0  0  0  0  0  0  0  0  0
   -5.7716    5.0819  -16.9411 C   0  0  0  0  0  0  0  0  0  0  0  0
   -6.8369    4.8040  -17.7124 N   0  0  0  0  0  0  0  0  0  0  0  0
  1  2  1  0
  2  3  1  0
  3  4  2  0
  4  5  1  0
  5  6  1  0
  6  7  2  0
  6  8  1  0
  8  9  1  0
  9 10  2  0
 10 11  1  0
 11 12  2  0
 12 13  1  0
 13 14  2  0
 13 15  1  0
 15 16  2  0
 15 17  1  0
 17 18  1  0
 18 19  2  0
  5 20  2  0
 20 21  1  0
 21 22  1  0
 21 23  2  0
 23 24  1  0
 24 25  1  0
 25 26  2  0
 26 27  1  0
 27 28  2  0
 28 29  1  0
 29 30  2  0
 30 31  1  0
 24 32  1  0
 32 33  2  0
 33  3  1  0
 14  9  1  0
 32 20  1  0
 18 12  1  0
 30 25  1  0
M  END
>  <name>  (335) 
P116208

>  <alias>  (335) 
None

>  <smina_score_min>  (335) 
-8.733

>  <exports>  (335) 
['/opt/xchem-fragalysis-2/maxwin/BulkDock/OUTPUTS/openbind_xx01zvns2b_c2_elabs_1LOUTNY.sdf', '/opt/xchem-fragalysis-2/maxwin/BulkDock/OUTPUTS/openbind_xx01zvns2b_c2_elabs_1LSYIIV.sdf']

>  <tags>  (335) 
syndirella_placed,openbind_xx01zvns2b_c2_elabs,openbind_xx01zvns2b_c2_elabs_scored_6.2plus,syndirella_product,openbind_xx01zvns2b_c2_elabs_scored,openbind_xx01zvns2b_c2_elabs_scored_top80percent,BulkDock Fragalysis export

>  <subsites>  (335) 
1 - Z4590/B/203/1

>  <smiles>  (335) 
CCc1cc(C(=O)Nc2ccc3c(c2)C(=O)NC3=O)c2c(C)nn(-c3ccccc3F)c2n1

>  <HIPPO Pose ID>  (335) 
116208

>  <energy_score>  (335) 
-16.158958

>  <inchikey>  (335) 
IWLRVXMCWWAJDB-UHFFFAOYSA-N

>  <gnina_score_min>  (335) 
6.366

>  <gnina_score>  (335) 
6.427

>  <ref_mols>  (335) 
Z3556a

>  <HIPPO Compound ID>  (335) 
179460

>  <distance_score>  (335) 
0.473546

>  <rmsd(smina/fragmenstein)>  (335) 
0.791

>  <ref_pdb>  (335) 
Z3556a

>  <inspiration_score>  (335) 
None

$$$$
P116209
     RDKit          3D

 33 37  0  0  0  0  0  0  0  0999 V2000
  -10.2383    4.3621  -18.3784 C   0  0  0  0  0  0  0  0  0  0  0  0
   -9.0112    3.5452  -18.0646 C   0  0  0  0  0  0  0  0  0  0  0  0
   -7.9453    4.2762  -17.2906 C   0  0  0  0  0  0  0  0  0  0  0  0
   -8.1324    4.5511  -15.9380 C   0  0  0  0  0  0  0  0  0  0  0  0
   -7.0746    5.1041  -15.2163 C   0  0  0  0  0  0  0  0  0  0  0  0
   -7.2520    5.5427  -13.8250 C   0  0  0  0  0  0  0  0  0  0  0  0
   -7.0886    6.6745  -13.5911 O   0  0  0  0  0  0  0  0  0  0  0  0
   -7.5938    4.3657  -12.8858 N   0  0  0  0  0  0  0  0  0  0  0  0
   -7.8893    4.3507  -11.5237 C   0  0  0  0  0  0  0  0  0  0  0  0
   -7.9106    5.5525  -10.7875 C   0  0  0  0  0  0  0  0  0  0  0  0
   -8.2100    5.5566   -9.4244 C   0  0  0  0  0  0  0  0  0  0  0  0
   -8.4828    4.3408   -8.8350 C   0  0  0  0  0  0  0  0  0  0  0  0
   -8.4669    3.1407   -9.5437 C   0  0  0  0  0  0  0  0  0  0  0  0
   -8.1652    3.1283  -10.8972 C   0  0  0  0  0  0  0  0  0  0  0  0
   -8.8490    2.0189   -8.6364 C   0  0  0  0  0  0  0  0  0  0  0  0
   -9.1409    2.7103   -7.3919 N   0  0  0  0  0  0  0  0  0  0  0  0
   -9.8858    2.0758   -6.3391 C   0  0  0  0  0  0  0  0  0  0  0  0
   -8.9274    4.0697   -7.4638 C   0  0  0  0  0  0  0  0  0  0  0  0
   -9.1234    4.9254   -6.6203 O   0  0  0  0  0  0  0  0  0  0  0  0
   -5.8484    5.3142  -15.8600 C   0  0  0  0  0  0  0  0  0  0  0  0
   -4.5276    5.6993  -15.5234 C   0  0  0  0  0  0  0  0  0  0  0  0
   -3.9850    6.0532  -14.1869 C   0  0  0  0  0  0  0  0  0  0  0  0
   -3.7087    5.6590  -16.5830 N   0  0  0  0  0  0  0  0  0  0  0  0
   -4.5323    5.4026  -17.6411 N   0  0  0  0  0  0  0  0  0  0  0  0
   -4.0303    5.4676  -18.9608 C   0  0  0  0  0  0  0  0  0  0  0  0
   -2.6753    5.2088  -19.2051 C   0  0  0  0  0  0  0  0  0  0  0  0
   -2.1866    5.2419  -20.5140 C   0  0  0  0  0  0  0  0  0  0  0  0
   -3.0349    5.5490  -21.5783 C   0  0  0  0  0  0  0  0  0  0  0  0
   -4.3710    5.8548  -21.3297 C   0  0  0  0  0  0  0  0  0  0  0  0
   -4.8575    5.8282  -20.0235 C   0  0  0  0  0  0  0  0  0  0  0  0
   -6.0920    6.3013  -19.8137 F   0  0  0  0  0  0  0  0  0  0  0  0
   -5.8110    5.0696  -17.2224 C   0  0  0  0  0  0  0  0  0  0  0  0
   -6.8135    4.5591  -17.9672 N   0  0  0  0  0  0  0  0  0  0  0  0
  1  2  1  0
  2  3  1  0
  3  4  2  0
  4  5  1  0
  5  6  1  0
  6  7  2  0
  6  8  1  0
  8  9  1  0
  9 10  2  0
 10 11  1  0
 11 12  2  0
 12 13  1  0
 13 14  2  0
 13 15  1  0
 15 16  1  0
 16 17  1  0
 16 18  1  0
 18 19  2  0
  5 20  2  0
 20 21  1  0
 21 22  1  0
 21 23  2  0
 23 24  1  0
 24 25  1  0
 25 26  2  0
 26 27  1  0
 27 28  2  0
 28 29  1  0
 29 30  2  0
 30 31  1  0
 24 32  1  0
 32 33  2  0
 33  3  1  0
 14  9  1  0
 32 20  1  0
 18 12  1  0
 30 25  1  0
M  END
>  <name>  (336) 
P116209

>  <alias>  (336) 
None

>  <smina_score_min>  (336) 
-9.082

>  <exports>  (336) 
['/opt/xchem-fragalysis-2/maxwin/BulkDock/OUTPUTS/openbind_xx01zvns2b_c2_elabs_1LOUTNY.sdf', '/opt/xchem-fragalysis-2/maxwin/BulkDock/OUTPUTS/openbind_xx01zvns2b_c2_elabs_1LSYIIV.sdf']

>  <tags>  (336) 
syndirella_placed,openbind_xx01zvns2b_c2_elabs,openbind_xx01zvns2b_c2_elabs_scored_6.2plus,syndirella_product,openbind_xx01zvns2b_c2_elabs_scored,openbind_xx01zvns2b_c2_elabs_scored_top80percent,BulkDock Fragalysis export

>  <subsites>  (336) 
1 - Z4590/B/203/1

>  <smiles>  (336) 
CCc1cc(C(=O)Nc2ccc3c(c2)CN(C)C3=O)c2c(C)nn(-c3ccccc3F)c2n1

>  <HIPPO Pose ID>  (336) 
116209

>  <energy_score>  (336) 
-39.134795

>  <inchikey>  (336) 
AEVUOVVMSJDTEU-UHFFFAOYSA-N

>  <gnina_score_min>  (336) 
6.59

>  <gnina_score>  (336) 
6.553

>  <ref_mols>  (336) 
Z3556a

>  <HIPPO Compound ID>  (336) 
179461

>  <distance_score>  (336) 
0.487816

>  <rmsd(smina/fragmenstein)>  (336) 
0.392

>  <ref_pdb>  (336) 
Z3556a

>  <inspiration_score>  (336) 
None

$$$$
P116210
     RDKit          3D

 33 37  0  0  0  0  0  0  0  0999 V2000
   -9.2410    4.3463  -19.0340 C   0  0  0  0  0  0  0  0  0  0  0  0
   -9.1245    3.8219  -17.6354 C   0  0  0  0  0  0  0  0  0  0  0  0
   -7.8852    4.3632  -16.9731 C   0  0  0  0  0  0  0  0  0  0  0  0
   -7.9461    4.6944  -15.6342 C   0  0  0  0  0  0  0  0  0  0  0  0
   -6.8057    5.2145  -15.0260 C   0  0  0  0  0  0  0  0  0  0  0  0
   -6.8883    5.6570  -13.6321 C   0  0  0  0  0  0  0  0  0  0  0  0
   -6.5990    6.7515  -13.3553 O   0  0  0  0  0  0  0  0  0  0  0  0
   -7.4739    4.5293  -12.7634 N   0  0  0  0  0  0  0  0  0  0  0  0
   -7.7288    4.4818  -11.4054 C   0  0  0  0  0  0  0  0  0  0  0  0
   -7.6480    5.6393  -10.6130 C   0  0  0  0  0  0  0  0  0  0  0  0
   -7.9735    5.5968   -9.2595 C   0  0  0  0  0  0  0  0  0  0  0  0
   -8.3829    4.3871   -8.7420 C   0  0  0  0  0  0  0  0  0  0  0  0
   -8.4496    3.2362   -9.5309 C   0  0  0  0  0  0  0  0  0  0  0  0
   -8.1229    3.2591  -10.8663 C   0  0  0  0  0  0  0  0  0  0  0  0
   -8.9367    2.1010   -8.6968 C   0  0  0  0  0  0  0  0  0  0  0  0
   -9.5947    2.7915   -7.5699 N   0  0  0  0  0  0  0  0  0  0  0  0
   -9.6608    1.9616   -6.3898 C   0  0  0  0  0  0  0  0  0  0  0  0
  -10.6167    2.5778   -5.3836 C   0  0  0  0  0  0  0  0  0  0  0  0
   -8.8399    4.0443   -7.3649 C   0  0  0  0  0  0  0  0  0  0  0  0
   -5.6318    5.3618  -15.7668 C   0  0  0  0  0  0  0  0  0  0  0  0
   -4.2937    5.7548  -15.5578 C   0  0  0  0  0  0  0  0  0  0  0  0
   -3.6436    6.1931  -14.2971 C   0  0  0  0  0  0  0  0  0  0  0  0
   -3.5716    5.6762  -16.6789 N   0  0  0  0  0  0  0  0  0  0  0  0
   -4.4471    5.2885  -17.6487 N   0  0  0  0  0  0  0  0  0  0  0  0
   -4.0494    5.2490  -19.0141 C   0  0  0  0  0  0  0  0  0  0  0  0
   -5.0033    5.2413  -20.0459 C   0  0  0  0  0  0  0  0  0  0  0  0
   -4.6025    5.2392  -21.3864 C   0  0  0  0  0  0  0  0  0  0  0  0
   -3.2494    5.2259  -21.7135 C   0  0  0  0  0  0  0  0  0  0  0  0
   -2.2972    5.2244  -20.6970 C   0  0  0  0  0  0  0  0  0  0  0  0
   -2.6938    5.2459  -19.3589 C   0  0  0  0  0  0  0  0  0  0  0  0
   -1.7224    5.2246  -18.4355 F   0  0  0  0  0  0  0  0  0  0  0  0
   -5.7009    5.0227  -17.1081 C   0  0  0  0  0  0  0  0  0  0  0  0
   -6.7825    4.5179  -17.7374 N   0  0  0  0  0  0  0  0  0  0  0  0
  1  2  1  0
  2  3  1  0
  3  4  2  0
  4  5  1  0
  5  6  1  0
  6  7  2  0
  6  8  1  0
  8  9  1  0
  9 10  2  0
 10 11  1  0
 11 12  2  0
 12 13  1  0
 13 14  2  0
 13 15  1  0
 15 16  1  0
 16 17  1  0
 17 18  1  0
 16 19  1  0
  5 20  2  0
 20 21  1  0
 21 22  1  0
 21 23  2  0
 23 24  1  0
 24 25  1  0
 25 26  2  0
 26 27  1  0
 27 28  2  0
 28 29  1  0
 29 30  2  0
 30 31  1  0
 24 32  1  0
 32 33  2  0
 33  3  1  0
 14  9  1  0
 32 20  1  0
 19 12  1  0
 30 25  1  0
M  END
>  <name>  (337) 
P116210

>  <alias>  (337) 
None

>  <smina_score_min>  (337) 
-8.937

>  <exports>  (337) 
['/opt/xchem-fragalysis-2/maxwin/BulkDock/OUTPUTS/openbind_xx01zvns2b_c2_elabs_1LOUTNY.sdf', '/opt/xchem-fragalysis-2/maxwin/BulkDock/OUTPUTS/openbind_xx01zvns2b_c2_elabs_1LSYIIV.sdf']

>  <tags>  (337) 
syndirella_placed,openbind_xx01zvns2b_c2_elabs,openbind_xx01zvns2b_c2_elabs_scored_6.2plus,syndirella_product,openbind_xx01zvns2b_c2_elabs_scored,openbind_xx01zvns2b_c2_elabs_scored_top80percent,BulkDock Fragalysis export

>  <subsites>  (337) 
1 - Z4590/B/203/1

>  <smiles>  (337) 
CCc1cc(C(=O)Nc2ccc3c(c2)CN(CC)C3)c2c(C)nn(-c3ccccc3F)c2n1

>  <HIPPO Pose ID>  (337) 
116210

>  <energy_score>  (337) 
-82.080603

>  <inchikey>  (337) 
KPOLZNXGVXJTPP-UHFFFAOYSA-N

>  <gnina_score_min>  (337) 
6.734

>  <gnina_score>  (337) 
6.485

>  <ref_mols>  (337) 
Z3556a

>  <HIPPO Compound ID>  (337) 
179464

>  <distance_score>  (337) 
0.610415

>  <rmsd(smina/fragmenstein)>  (337) 
0.605

>  <ref_pdb>  (337) 
Z3556a

>  <inspiration_score>  (337) 
None

$$$$
P116211
     RDKit          3D

 33 37  0  0  0  0  0  0  0  0999 V2000
   -9.3785    2.9488  -18.1411 C   0  0  0  0  0  0  0  0  0  0  0  0
   -9.1894    4.4109  -17.8982 C   0  0  0  0  0  0  0  0  0  0  0  0
   -7.9682    4.6464  -17.0547 C   0  0  0  0  0  0  0  0  0  0  0  0
   -8.0678    4.7314  -15.6663 C   0  0  0  0  0  0  0  0  0  0  0  0
   -6.9167    5.0067  -14.9249 C   0  0  0  0  0  0  0  0  0  0  0  0
   -7.0011    5.3901  -13.4993 C   0  0  0  0  0  0  0  0  0  0  0  0
   -6.5123    6.4165  -13.2252 O   0  0  0  0  0  0  0  0  0  0  0  0
   -7.7844    4.3811  -12.6166 N   0  0  0  0  0  0  0  0  0  0  0  0
   -8.0380    4.3829  -11.2314 C   0  0  0  0  0  0  0  0  0  0  0  0
   -8.5118    3.2183  -10.6061 C   0  0  0  0  0  0  0  0  0  0  0  0
   -8.6787    3.2470   -9.2228 C   0  0  0  0  0  0  0  0  0  0  0  0
   -8.3776    4.3685   -8.4502 C   0  0  0  0  0  0  0  0  0  0  0  0
   -7.9622    5.5335   -9.0541 C   0  0  0  0  0  0  0  0  0  0  0  0
   -7.8091    5.5343  -10.4413 C   0  0  0  0  0  0  0  0  0  0  0  0
   -7.4544    6.7016  -10.9918 F   0  0  0  0  0  0  0  0  0  0  0  0
   -8.5646    4.0748   -7.0023 C   0  0  0  0  0  0  0  0  0  0  0  0
   -9.1274    2.7568   -7.0171 N   0  0  0  0  0  0  0  0  0  0  0  0
   -9.1575    2.2157   -8.2870 C   0  0  0  0  0  0  0  0  0  0  0  0
   -9.5505    1.1044   -8.5577 O   0  0  0  0  0  0  0  0  0  0  0  0
   -5.6953    5.1401  -15.6132 C   0  0  0  0  0  0  0  0  0  0  0  0
   -4.3223    5.3350  -15.3159 C   0  0  0  0  0  0  0  0  0  0  0  0
   -3.6760    5.4553  -13.9839 C   0  0  0  0  0  0  0  0  0  0  0  0
   -3.5610    5.3482  -16.4194 N   0  0  0  0  0  0  0  0  0  0  0  0
   -4.4523    5.3019  -17.4522 N   0  0  0  0  0  0  0  0  0  0  0  0
   -4.0032    5.4552  -18.7877 C   0  0  0  0  0  0  0  0  0  0  0  0
   -2.6777    5.1307  -19.1117 C   0  0  0  0  0  0  0  0  0  0  0  0
   -2.2344    5.2342  -20.4333 C   0  0  0  0  0  0  0  0  0  0  0  0
   -3.0983    5.6742  -21.4352 C   0  0  0  0  0  0  0  0  0  0  0  0
   -4.4009    6.0425  -21.1083 C   0  0  0  0  0  0  0  0  0  0  0  0
   -4.8425    5.9491  -19.7883 C   0  0  0  0  0  0  0  0  0  0  0  0
   -6.0395    6.4812  -19.5082 F   0  0  0  0  0  0  0  0  0  0  0  0
   -5.7388    5.0667  -16.9965 C   0  0  0  0  0  0  0  0  0  0  0  0
   -6.8243    4.7985  -17.7424 N   0  0  0  0  0  0  0  0  0  0  0  0
  1  2  1  0
  2  3  1  0
  3  4  2  0
  4  5  1  0
  5  6  1  0
  6  7  2  0
  6  8  1  0
  8  9  1  0
  9 10  2  0
 10 11  1  0
 11 12  2  0
 12 13  1  0
 13 14  2  0
 14 15  1  0
 12 16  1  0
 16 17  1  0
 17 18  1  0
 18 19  2  0
  5 20  2  0
 20 21  1  0
 21 22  1  0
 21 23  2  0
 23 24  1  0
 24 25  1  0
 25 26  2  0
 26 27  1  0
 27 28  2  0
 28 29  1  0
 29 30  2  0
 30 31  1  0
 24 32  1  0
 32 33  2  0
 33  3  1  0
 14  9  1  0
 32 20  1  0
 18 11  1  0
 30 25  1  0
M  END
>  <name>  (338) 
P116211

>  <alias>  (338) 
None

>  <smina_score_min>  (338) 
-8.968

>  <exports>  (338) 
['/opt/xchem-fragalysis-2/maxwin/BulkDock/OUTPUTS/openbind_xx01zvns2b_c2_elabs_1LOUTNY.sdf', '/opt/xchem-fragalysis-2/maxwin/BulkDock/OUTPUTS/openbind_xx01zvns2b_c2_elabs_1LSYIIV.sdf']

>  <tags>  (338) 
syndirella_placed,openbind_xx01zvns2b_c2_elabs,openbind_xx01zvns2b_c2_elabs_scored_6.2plus,syndirella_product,openbind_xx01zvns2b_c2_elabs_scored,openbind_xx01zvns2b_c2_elabs_scored_top80percent,BulkDock Fragalysis export

>  <subsites>  (338) 
1 - Z4590/B/203/1

>  <smiles>  (338) 
CCc1cc(C(=O)Nc2cc3c(cc2F)CNC3=O)c2c(C)nn(-c3ccccc3F)c2n1

>  <HIPPO Pose ID>  (338) 
116211

>  <energy_score>  (338) 
-35.239336

>  <inchikey>  (338) 
RWLCXIQYRMTKKI-UHFFFAOYSA-N

>  <gnina_score_min>  (338) 
6.717

>  <gnina_score>  (338) 
6.575

>  <ref_mols>  (338) 
Z3556a

>  <HIPPO Compound ID>  (338) 
179467

>  <distance_score>  (338) 
0.481957

>  <rmsd(smina/fragmenstein)>  (338) 
0.919

>  <ref_pdb>  (338) 
Z3556a

>  <inspiration_score>  (338) 
None

$$$$
P116212
     RDKit          3D

 33 37  0  0  0  0  0  0  0  0999 V2000
  -10.2737    4.3566  -18.3673 C   0  0  0  0  0  0  0  0  0  0  0  0
   -9.0655    3.5186  -18.0365 C   0  0  0  0  0  0  0  0  0  0  0  0
   -8.0098    4.2321  -17.2366 C   0  0  0  0  0  0  0  0  0  0  0  0
   -8.1956    4.4862  -15.8801 C   0  0  0  0  0  0  0  0  0  0  0  0
   -7.1461    5.0521  -15.1548 C   0  0  0  0  0  0  0  0  0  0  0  0
   -7.3360    5.5243  -13.7706 C   0  0  0  0  0  0  0  0  0  0  0  0
   -7.0955    6.6496  -13.5659 O   0  0  0  0  0  0  0  0  0  0  0  0
   -7.8266    4.4124  -12.8111 N   0  0  0  0  0  0  0  0  0  0  0  0
   -8.0256    4.4299  -11.4270 C   0  0  0  0  0  0  0  0  0  0  0  0
   -7.8254    5.6297  -10.7125 C   0  0  0  0  0  0  0  0  0  0  0  0
   -8.0035    5.7002   -9.3275 C   0  0  0  0  0  0  0  0  0  0  0  0
   -8.4020    4.5568   -8.6701 C   0  0  0  0  0  0  0  0  0  0  0  0
   -8.6138    3.3735   -9.3792 C   0  0  0  0  0  0  0  0  0  0  0  0
   -8.4254    3.2735  -10.7516 C   0  0  0  0  0  0  0  0  0  0  0  0
   -9.1473    2.3878   -8.4280 C   0  0  0  0  0  0  0  0  0  0  0  0
   -9.5488    1.2824   -8.7176 O   0  0  0  0  0  0  0  0  0  0  0  0
   -9.1978    3.0072   -7.1936 N   0  0  0  0  0  0  0  0  0  0  0  0
   -9.8911    2.4646   -6.0552 C   0  0  0  0  0  0  0  0  0  0  0  0
   -8.7209    4.3660   -7.2271 C   0  0  0  0  0  0  0  0  0  0  0  0
   -5.9244    5.2905  -15.8077 C   0  0  0  0  0  0  0  0  0  0  0  0
   -4.6229    5.7408  -15.4864 C   0  0  0  0  0  0  0  0  0  0  0  0
   -4.0845    6.1481  -14.1637 C   0  0  0  0  0  0  0  0  0  0  0  0
   -3.8161    5.7501  -16.5522 N   0  0  0  0  0  0  0  0  0  0  0  0
   -4.5913    5.3451  -17.5977 N   0  0  0  0  0  0  0  0  0  0  0  0
   -4.0744    5.3107  -18.9243 C   0  0  0  0  0  0  0  0  0  0  0  0
   -4.9320    5.2417  -20.0356 C   0  0  0  0  0  0  0  0  0  0  0  0
   -4.4174    5.2126  -21.3361 C   0  0  0  0  0  0  0  0  0  0  0  0
   -3.0421    5.2396  -21.5450 C   0  0  0  0  0  0  0  0  0  0  0  0
   -2.1832    5.3071  -20.4502 C   0  0  0  0  0  0  0  0  0  0  0  0
   -2.6950    5.3516  -19.1517 C   0  0  0  0  0  0  0  0  0  0  0  0
   -1.8057    5.3928  -18.1492 F   0  0  0  0  0  0  0  0  0  0  0  0
   -5.8765    5.0309  -17.1679 C   0  0  0  0  0  0  0  0  0  0  0  0
   -6.8853    4.5339  -17.9083 N   0  0  0  0  0  0  0  0  0  0  0  0
  1  2  1  0
  2  3  1  0
  3  4  2  0
  4  5  1  0
  5  6  1  0
  6  7  2  0
  6  8  1  0
  8  9  1  0
  9 10  2  0
 10 11  1  0
 11 12  2  0
 12 13  1  0
 13 14  2  0
 13 15  1  0
 15 16  2  0
 15 17  1  0
 17 18  1  0
 17 19  1  0
  5 20  2  0
 20 21  1  0
 21 22  1  0
 21 23  2  0
 23 24  1  0
 24 25  1  0
 25 26  2  0
 26 27  1  0
 27 28  2  0
 28 29  1  0
 29 30  2  0
 30 31  1  0
 24 32  1  0
 32 33  2  0
 33  3  1  0
 14  9  1  0
 32 20  1  0
 19 12  1  0
 30 25  1  0
M  END
>  <name>  (339) 
P116212

>  <alias>  (339) 
None

>  <smina_score_min>  (339) 
-9.169

>  <exports>  (339) 
['/opt/xchem-fragalysis-2/maxwin/BulkDock/OUTPUTS/openbind_xx01zvns2b_c2_elabs_1LOUTNY.sdf', '/opt/xchem-fragalysis-2/maxwin/BulkDock/OUTPUTS/openbind_xx01zvns2b_c2_elabs_1LSYIIV.sdf']

>  <tags>  (339) 
syndirella_placed,openbind_xx01zvns2b_c2_elabs,openbind_xx01zvns2b_c2_elabs_scored_6.2plus,syndirella_product,openbind_xx01zvns2b_c2_elabs_scored,openbind_xx01zvns2b_c2_elabs_scored_top80percent,BulkDock Fragalysis export

>  <subsites>  (339) 
1 - Z4590/B/203/1

>  <smiles>  (339) 
CCc1cc(C(=O)Nc2ccc3c(c2)C(=O)N(C)C3)c2c(C)nn(-c3ccccc3F)c2n1

>  <HIPPO Pose ID>  (339) 
116212

>  <energy_score>  (339) 
-47.223742

>  <inchikey>  (339) 
POVFTHYHTULPJZ-UHFFFAOYSA-N

>  <gnina_score_min>  (339) 
6.606

>  <gnina_score>  (339) 
6.596

>  <ref_mols>  (339) 
Z3556a

>  <HIPPO Compound ID>  (339) 
179469

>  <distance_score>  (339) 
0.504337

>  <rmsd(smina/fragmenstein)>  (339) 
0.624

>  <ref_pdb>  (339) 
Z3556a

>  <inspiration_score>  (339) 
None

$$$$
P116214
     RDKit          3D

 33 38  0  0  0  0  0  0  0  0999 V2000
  -10.6315    2.5148   -5.5447 C   0  0  0  0  0  0  0  0  0  0  0  0
   -9.6280    1.9234   -6.5200 C   0  0  0  0  0  0  0  0  0  0  0  0
   -9.5448    2.7443   -7.7078 N   0  0  0  0  0  0  0  0  0  0  0  0
   -8.8000    4.0047   -7.5464 C   0  0  0  0  0  0  0  0  0  0  0  0
   -8.4165    4.3363   -8.9550 C   0  0  0  0  0  0  0  0  0  0  0  0
   -8.0872    5.5446   -9.5311 C   0  0  0  0  0  0  0  0  0  0  0  0
   -7.8461    5.5641  -10.9084 C   0  0  0  0  0  0  0  0  0  0  0  0
   -7.9167    4.3857  -11.6750 C   0  0  0  0  0  0  0  0  0  0  0  0
   -7.7173    4.4083  -13.0513 N   0  0  0  0  0  0  0  0  0  0  0  0
   -7.2867    5.5578  -13.9812 C   0  0  0  0  0  0  0  0  0  0  0  0
   -7.1050    6.6873  -13.7534 O   0  0  0  0  0  0  0  0  0  0  0  0
   -7.1323    5.0920  -15.3651 C   0  0  0  0  0  0  0  0  0  0  0  0
   -8.2336    4.6203  -16.0781 C   0  0  0  0  0  0  0  0  0  0  0  0
   -8.0924    4.3868  -17.4396 C   0  0  0  0  0  0  0  0  0  0  0  0
   -9.2735    3.9209  -18.2416 C   0  0  0  0  0  0  0  0  0  0  0  0
   -6.9422    4.5703  -18.1207 N   0  0  0  0  0  0  0  0  0  0  0  0
   -5.8892    4.9842  -17.3809 C   0  0  0  0  0  0  0  0  0  0  0  0
   -5.9048    5.2345  -16.0178 C   0  0  0  0  0  0  0  0  0  0  0  0
   -4.5755    5.5676  -15.7061 C   0  0  0  0  0  0  0  0  0  0  0  0
   -4.0630    5.9086  -14.2789 C   0  0  0  0  0  0  0  0  0  0  0  0
   -3.9807    4.8094  -13.2492 C   0  0  0  0  0  0  0  0  0  0  0  0
   -2.7229    5.3916  -13.8225 C   0  0  0  0  0  0  0  0  0  0  0  0
   -3.7638    5.5358  -16.7630 N   0  0  0  0  0  0  0  0  0  0  0  0
   -4.5906    5.2404  -17.8119 N   0  0  0  0  0  0  0  0  0  0  0  0
   -4.0838    5.2618  -19.1445 C   0  0  0  0  0  0  0  0  0  0  0  0
   -4.9408    5.2902  -20.2535 C   0  0  0  0  0  0  0  0  0  0  0  0
   -4.4189    5.3381  -21.5490 C   0  0  0  0  0  0  0  0  0  0  0  0
   -3.0407    5.3362  -21.7489 C   0  0  0  0  0  0  0  0  0  0  0  0
   -2.1817    5.3047  -20.6523 C   0  0  0  0  0  0  0  0  0  0  0  0
   -2.6971    5.2805  -19.3541 C   0  0  0  0  0  0  0  0  0  0  0  0
   -8.2176    3.1655  -11.0723 C   0  0  0  0  0  0  0  0  0  0  0  0
   -8.4776    3.1661   -9.7167 C   0  0  0  0  0  0  0  0  0  0  0  0
   -8.8991    2.0394   -8.8316 C   0  0  0  0  0  0  0  0  0  0  0  0
  1  2  1  0
  2  3  1  0
  3  4  1  0
  4  5  1  0
  5  6  2  0
  6  7  1  0
  7  8  2  0
  8  9  1  0
  9 10  1  0
 10 11  2  0
 10 12  1  0
 12 13  2  0
 13 14  1  0
 14 15  1  0
 14 16  2  0
 16 17  1  0
 17 18  2  0
 18 19  1  0
 19 20  1  0
 20 21  1  0
 21 22  1  0
 19 23  2  0
 23 24  1  0
 24 25  1  0
 25 26  2  0
 26 27  1  0
 27 28  2  0
 28 29  1  0
 29 30  2  0
  8 31  1  0
 31 32  2  0
 32 33  1  0
 33  3  1  0
 32  5  1  0
 18 12  1  0
 22 20  1  0
 30 25  1  0
 24 17  1  0
M  END
>  <name>  (340) 
P116214

>  <alias>  (340) 
None

>  <smina_score_min>  (340) 
-9.564

>  <exports>  (340) 
['/opt/xchem-fragalysis-2/maxwin/BulkDock/OUTPUTS/openbind_xx01zvns2b_c2_elabs_1LOUTNY.sdf', '/opt/xchem-fragalysis-2/maxwin/BulkDock/OUTPUTS/openbind_xx01zvns2b_c2_elabs_1LSYIIV.sdf']

>  <tags>  (340) 
syndirella_placed,openbind_xx01zvns2b_c2_elabs,openbind_xx01zvns2b_c2_elabs_scored_6.2plus,syndirella_product,openbind_xx01zvns2b_c2_elabs_scored,openbind_xx01zvns2b_c2_elabs_scored_top80percent,BulkDock Fragalysis export

>  <subsites>  (340) 
1 - Z4590/B/203/1

>  <smiles>  (340) 
CCN1Cc2ccc(NC(=O)c3cc(C)nc4c3c(C3CC3)nn4-c3ccccc3)cc2C1

>  <HIPPO Pose ID>  (340) 
116214

>  <energy_score>  (340) 
-62.847383

>  <inchikey>  (340) 
BNEGQAYSHUHFFI-UHFFFAOYSA-N

>  <gnina_score_min>  (340) 
6.672

>  <gnina_score>  (340) 
6.598

>  <ref_mols>  (340) 
Z3556a

>  <HIPPO Compound ID>  (340) 
179473

>  <distance_score>  (340) 
0.537549

>  <rmsd(smina/fragmenstein)>  (340) 
0.329

>  <ref_pdb>  (340) 
Z3556a

>  <inspiration_score>  (340) 
None

$$$$
P116220
     RDKit          3D

 33 37  0  0  0  0  0  0  0  0999 V2000
   -7.2815    3.5606   -4.6544 C   0  0  0  0  0  0  0  0  0  0  0  0
   -7.3021    4.2613   -5.9971 C   0  0  0  0  0  0  0  0  0  0  0  0
   -8.6433    4.1482   -6.5870 N   0  0  0  0  0  0  0  0  0  0  0  0
   -8.9883    5.4807   -7.1090 C   0  0  0  0  0  0  0  0  0  0  0  0
   -8.6178    5.4475   -8.5501 C   0  0  0  0  0  0  0  0  0  0  0  0
   -8.4612    6.5197   -9.3952 C   0  0  0  0  0  0  0  0  0  0  0  0
   -8.1651    6.2540  -10.7237 C   0  0  0  0  0  0  0  0  0  0  0  0
   -8.0494    4.9370  -11.2054 C   0  0  0  0  0  0  0  0  0  0  0  0
   -7.7664    4.7775  -12.5648 N   0  0  0  0  0  0  0  0  0  0  0  0
   -7.3020    5.8090  -13.6232 C   0  0  0  0  0  0  0  0  0  0  0  0
   -7.1582    6.9667  -13.5414 O   0  0  0  0  0  0  0  0  0  0  0  0
   -7.0721    5.2427  -14.9562 C   0  0  0  0  0  0  0  0  0  0  0  0
   -8.1182    4.6939  -15.6981 C   0  0  0  0  0  0  0  0  0  0  0  0
   -7.9183    4.4702  -17.0573 C   0  0  0  0  0  0  0  0  0  0  0  0
   -8.9484    3.7133  -17.8667 C   0  0  0  0  0  0  0  0  0  0  0  0
  -10.2468    4.4361  -18.1632 C   0  0  0  0  0  0  0  0  0  0  0  0
   -8.3753    3.2188  -19.1823 C   0  0  0  0  0  0  0  0  0  0  0  0
   -6.7824    4.7981  -17.7017 N   0  0  0  0  0  0  0  0  0  0  0  0
   -5.7676    5.2291  -16.9403 C   0  0  0  0  0  0  0  0  0  0  0  0
   -5.8368    5.4598  -15.5809 C   0  0  0  0  0  0  0  0  0  0  0  0
   -4.5528    5.9071  -15.2413 C   0  0  0  0  0  0  0  0  0  0  0  0
   -3.7057    5.8910  -16.2719 N   0  0  0  0  0  0  0  0  0  0  0  0
   -4.4631    5.5013  -17.3408 N   0  0  0  0  0  0  0  0  0  0  0  0
   -3.9137    5.4360  -18.6546 C   0  0  0  0  0  0  0  0  0  0  0  0
   -4.7421    5.3703  -19.7893 C   0  0  0  0  0  0  0  0  0  0  0  0
   -4.1917    5.3093  -21.0748 C   0  0  0  0  0  0  0  0  0  0  0  0
   -2.8108    5.3022  -21.2441 C   0  0  0  0  0  0  0  0  0  0  0  0
   -1.9819    5.3695  -20.1267 C   0  0  0  0  0  0  0  0  0  0  0  0
   -2.5282    5.4447  -18.8445 C   0  0  0  0  0  0  0  0  0  0  0  0
   -1.6659    5.4863  -17.8189 F   0  0  0  0  0  0  0  0  0  0  0  0
   -8.2222    3.8497  -10.3342 C   0  0  0  0  0  0  0  0  0  0  0  0
   -8.4806    4.1315   -8.9918 C   0  0  0  0  0  0  0  0  0  0  0  0
   -8.6967    3.2408   -7.7996 C   0  0  0  0  0  0  0  0  0  0  0  0
  1  2  1  0
  2  3  1  0
  3  4  1  0
  4  5  1  0
  5  6  2  0
  6  7  1  0
  7  8  2  0
  8  9  1  0
  9 10  1  0
 10 11  2  0
 10 12  1  0
 12 13  2  0
 13 14  1  0
 14 15  1  0
 15 16  1  0
 15 17  1  0
 14 18  2  0
 18 19  1  0
 19 20  2  0
 20 21  1  0
 21 22  2  0
 22 23  1  0
 23 24  1  0
 24 25  2  0
 25 26  1  0
 26 27  2  0
 27 28  1  0
 28 29  2  0
 29 30  1  0
  8 31  1  0
 31 32  2  0
 32 33  1  0
 33  3  1  0
 32  5  1  0
 20 12  1  0
 29 24  1  0
 23 19  1  0
M  END
>  <name>  (341) 
P116220

>  <alias>  (341) 
None

>  <smina_score_min>  (341) 
-7.096

>  <exports>  (341) 
['/opt/xchem-fragalysis-2/maxwin/BulkDock/OUTPUTS/openbind_xx01zvns2b_c2_elabs_1LOUTNY.sdf', '/opt/xchem-fragalysis-2/maxwin/BulkDock/OUTPUTS/openbind_xx01zvns2b_c2_elabs_1LSYIIV.sdf']

>  <tags>  (341) 
syndirella_placed,openbind_xx01zvns2b_c2_elabs,openbind_xx01zvns2b_c2_elabs_scored_6.2plus,syndirella_product,openbind_xx01zvns2b_c2_elabs_scored,openbind_xx01zvns2b_c2_elabs_scored_top80percent,BulkDock Fragalysis export

>  <subsites>  (341) 
1 - Z4590/B/203/1

>  <smiles>  (341) 
CCN1Cc2ccc(NC(=O)c3cc(C(C)C)nc4c3cnn4-c3ccccc3F)cc2C1

>  <HIPPO Pose ID>  (341) 
116220

>  <energy_score>  (341) 
-40.521894

>  <inchikey>  (341) 
ZKPICMPLSPSMHQ-UHFFFAOYSA-N

>  <gnina_score_min>  (341) 
6.392

>  <gnina_score>  (341) 
6.407

>  <ref_mols>  (341) 
Z3556a

>  <HIPPO Compound ID>  (341) 
179487

>  <distance_score>  (341) 
1.003942

>  <rmsd(smina/fragmenstein)>  (341) 
0.842

>  <ref_pdb>  (341) 
Z3556a

>  <inspiration_score>  (341) 
None

$$$$
P116221
     RDKit          3D

 33 37  0  0  0  0  0  0  0  0999 V2000
   -8.9973    4.6924  -19.0722 C   0  0  0  0  0  0  0  0  0  0  0  0
   -9.1134    4.1592  -17.6799 C   0  0  0  0  0  0  0  0  0  0  0  0
   -9.3981    2.7024  -17.8488 C   0  0  0  0  0  0  0  0  0  0  0  0
   -7.8608    4.4410  -16.8819 C   0  0  0  0  0  0  0  0  0  0  0  0
   -7.9385    4.6002  -15.5002 C   0  0  0  0  0  0  0  0  0  0  0  0
   -6.7867    4.9782  -14.8060 C   0  0  0  0  0  0  0  0  0  0  0  0
   -6.8274    5.3586  -13.3823 C   0  0  0  0  0  0  0  0  0  0  0  0
   -6.3661    6.3952  -13.1028 O   0  0  0  0  0  0  0  0  0  0  0  0
   -7.5045    4.2895  -12.4923 N   0  0  0  0  0  0  0  0  0  0  0  0
   -7.8288    4.3133  -11.1362 C   0  0  0  0  0  0  0  0  0  0  0  0
   -7.6241    5.4969  -10.3972 C   0  0  0  0  0  0  0  0  0  0  0  0
   -7.9203    5.5702   -9.0343 C   0  0  0  0  0  0  0  0  0  0  0  0
   -8.4198    4.4406   -8.4236 C   0  0  0  0  0  0  0  0  0  0  0  0
   -8.6256    3.2715   -9.1581 C   0  0  0  0  0  0  0  0  0  0  0  0
   -8.3497    3.1769  -10.5141 C   0  0  0  0  0  0  0  0  0  0  0  0
   -9.2315    2.2873   -8.2503 C   0  0  0  0  0  0  0  0  0  0  0  0
   -9.6230    1.1859   -8.5687 O   0  0  0  0  0  0  0  0  0  0  0  0
   -9.3548    2.9010   -7.0176 N   0  0  0  0  0  0  0  0  0  0  0  0
  -10.1538    2.3733   -5.9424 C   0  0  0  0  0  0  0  0  0  0  0  0
   -8.8439    4.2484   -7.0084 C   0  0  0  0  0  0  0  0  0  0  0  0
   -5.5989    5.1666  -15.5264 C   0  0  0  0  0  0  0  0  0  0  0  0
   -4.2551    5.4881  -15.2686 C   0  0  0  0  0  0  0  0  0  0  0  0
   -3.4962    5.4868  -16.3688 N   0  0  0  0  0  0  0  0  0  0  0  0
   -4.3910    5.3026  -17.3874 N   0  0  0  0  0  0  0  0  0  0  0  0
   -3.9703    5.4091  -18.7355 C   0  0  0  0  0  0  0  0  0  0  0  0
   -2.6325    5.1520  -19.0655 C   0  0  0  0  0  0  0  0  0  0  0  0
   -2.2181    5.2128  -20.3991 C   0  0  0  0  0  0  0  0  0  0  0  0
   -3.1238    5.5451  -21.4062 C   0  0  0  0  0  0  0  0  0  0  0  0
   -4.4420    5.8482  -21.0746 C   0  0  0  0  0  0  0  0  0  0  0  0
   -4.8548    5.7956  -19.7435 C   0  0  0  0  0  0  0  0  0  0  0  0
   -6.0768    6.2658  -19.4635 F   0  0  0  0  0  0  0  0  0  0  0  0
   -5.6537    5.0039  -16.8973 C   0  0  0  0  0  0  0  0  0  0  0  0
   -6.7292    4.6080  -17.5958 N   0  0  0  0  0  0  0  0  0  0  0  0
  1  2  1  0
  2  3  1  0
  2  4  1  0
  4  5  2  0
  5  6  1  0
  6  7  1  0
  7  8  2  0
  7  9  1  0
  9 10  1  0
 10 11  2  0
 11 12  1  0
 12 13  2  0
 13 14  1  0
 14 15  2  0
 14 16  1  0
 16 17  2  0
 16 18  1  0
 18 19  1  0
 18 20  1  0
  6 21  2  0
 21 22  1  0
 22 23  2  0
 23 24  1  0
 24 25  1  0
 25 26  2  0
 26 27  1  0
 27 28  2  0
 28 29  1  0
 29 30  2  0
 30 31  1  0
 24 32  1  0
 32 33  2  0
 33  4  1  0
 15 10  1  0
 32 21  1  0
 20 13  1  0
 30 25  1  0
M  END
>  <name>  (342) 
P116221

>  <alias>  (342) 
None

>  <smina_score_min>  (342) 
-7.895

>  <exports>  (342) 
['/opt/xchem-fragalysis-2/maxwin/BulkDock/OUTPUTS/openbind_xx01zvns2b_c2_elabs_1LOUTNY.sdf', '/opt/xchem-fragalysis-2/maxwin/BulkDock/OUTPUTS/openbind_xx01zvns2b_c2_elabs_1LSYIIV.sdf']

>  <tags>  (342) 
syndirella_placed,openbind_xx01zvns2b_c2_elabs,openbind_xx01zvns2b_c2_elabs_scored_6.2plus,syndirella_product,openbind_xx01zvns2b_c2_elabs_scored,openbind_xx01zvns2b_c2_elabs_scored_top80percent,BulkDock Fragalysis export

>  <subsites>  (342) 
1 - Z4590/B/203/1

>  <smiles>  (342) 
CC(C)c1cc(C(=O)Nc2ccc3c(c2)C(=O)N(C)C3)c2cnn(-c3ccccc3F)c2n1

>  <HIPPO Pose ID>  (342) 
116221

>  <energy_score>  (342) 
-35.624032

>  <inchikey>  (342) 
YDUPVGOHDHCOMI-UHFFFAOYSA-N

>  <gnina_score_min>  (342) 
6.213

>  <gnina_score>  (342) 
6.149

>  <ref_mols>  (342) 
Z3556a

>  <HIPPO Compound ID>  (342) 
179488

>  <distance_score>  (342) 
0.592062

>  <rmsd(smina/fragmenstein)>  (342) 
0.475

>  <ref_pdb>  (342) 
Z3556a

>  <inspiration_score>  (342) 
None

$$$$
P116222
     RDKit          3D

 33 37  0  0  0  0  0  0  0  0999 V2000
   -8.9793    4.6869  -19.0727 C   0  0  0  0  0  0  0  0  0  0  0  0
   -9.1317    4.1477  -17.6859 C   0  0  0  0  0  0  0  0  0  0  0  0
   -9.4107    2.6907  -17.8657 C   0  0  0  0  0  0  0  0  0  0  0  0
   -7.9004    4.4227  -16.8540 C   0  0  0  0  0  0  0  0  0  0  0  0
   -8.0093    4.5644  -15.4715 C   0  0  0  0  0  0  0  0  0  0  0  0
   -6.8751    4.9290  -14.7414 C   0  0  0  0  0  0  0  0  0  0  0  0
   -6.9442    5.3036  -13.3125 C   0  0  0  0  0  0  0  0  0  0  0  0
   -6.4103    6.3026  -13.0223 O   0  0  0  0  0  0  0  0  0  0  0  0
   -7.7836    4.3244  -12.4494 N   0  0  0  0  0  0  0  0  0  0  0  0
   -8.0512    4.3239  -11.0705 C   0  0  0  0  0  0  0  0  0  0  0  0
   -8.5435    3.1613  -10.4586 C   0  0  0  0  0  0  0  0  0  0  0  0
   -8.7164    3.1839   -9.0780 C   0  0  0  0  0  0  0  0  0  0  0  0
   -8.4092    4.2992   -8.2983 C   0  0  0  0  0  0  0  0  0  0  0  0
   -7.9799    5.4650   -8.8922 C   0  0  0  0  0  0  0  0  0  0  0  0
   -7.8168    5.4708  -10.2770 C   0  0  0  0  0  0  0  0  0  0  0  0
   -7.4540    6.6375  -10.8243 F   0  0  0  0  0  0  0  0  0  0  0  0
   -8.6033    3.9970   -6.8534 C   0  0  0  0  0  0  0  0  0  0  0  0
   -9.1739    2.6817   -6.8776 N   0  0  0  0  0  0  0  0  0  0  0  0
   -9.2041    2.1487   -8.1513 C   0  0  0  0  0  0  0  0  0  0  0  0
   -9.6058    1.0423   -8.4312 O   0  0  0  0  0  0  0  0  0  0  0  0
   -5.6714    5.1279  -15.4392 C   0  0  0  0  0  0  0  0  0  0  0  0
   -4.3328    5.4517  -15.1526 C   0  0  0  0  0  0  0  0  0  0  0  0
   -3.5511    5.4668  -16.2372 N   0  0  0  0  0  0  0  0  0  0  0  0
   -4.4243    5.2913  -17.2757 N   0  0  0  0  0  0  0  0  0  0  0  0
   -3.9742    5.4077  -18.6145 C   0  0  0  0  0  0  0  0  0  0  0  0
   -2.6258    5.1672  -18.9133 C   0  0  0  0  0  0  0  0  0  0  0  0
   -2.1795    5.2327  -20.2362 C   0  0  0  0  0  0  0  0  0  0  0  0
   -3.0643    5.5553  -21.2645 C   0  0  0  0  0  0  0  0  0  0  0  0
   -4.3933    5.8438  -20.9643 C   0  0  0  0  0  0  0  0  0  0  0  0
   -4.8379    5.7852  -19.6436 C   0  0  0  0  0  0  0  0  0  0  0  0
   -6.0721    6.2401  -19.3951 F   0  0  0  0  0  0  0  0  0  0  0  0
   -5.6957    4.9845  -16.8136 C   0  0  0  0  0  0  0  0  0  0  0  0
   -6.7540    4.5960  -17.5399 N   0  0  0  0  0  0  0  0  0  0  0  0
  1  2  1  0
  2  3  1  0
  2  4  1  0
  4  5  2  0
  5  6  1  0
  6  7  1  0
  7  8  2  0
  7  9  1  0
  9 10  1  0
 10 11  2  0
 11 12  1  0
 12 13  2  0
 13 14  1  0
 14 15  2  0
 15 16  1  0
 13 17  1  0
 17 18  1  0
 18 19  1  0
 19 20  2  0
  6 21  2  0
 21 22  1  0
 22 23  2  0
 23 24  1  0
 24 25  1  0
 25 26  2  0
 26 27  1  0
 27 28  2  0
 28 29  1  0
 29 30  2  0
 30 31  1  0
 24 32  1  0
 32 33  2  0
 33  4  1  0
 15 10  1  0
 32 21  1  0
 19 12  1  0
 30 25  1  0
M  END
>  <name>  (343) 
P116222

>  <alias>  (343) 
None

>  <smina_score_min>  (343) 
-7.936

>  <exports>  (343) 
['/opt/xchem-fragalysis-2/maxwin/BulkDock/OUTPUTS/openbind_xx01zvns2b_c2_elabs_1LOUTNY.sdf', '/opt/xchem-fragalysis-2/maxwin/BulkDock/OUTPUTS/openbind_xx01zvns2b_c2_elabs_1LSYIIV.sdf']

>  <tags>  (343) 
syndirella_placed,openbind_xx01zvns2b_c2_elabs,openbind_xx01zvns2b_c2_elabs_scored_6.2plus,syndirella_product,openbind_xx01zvns2b_c2_elabs_scored,openbind_xx01zvns2b_c2_elabs_scored_top80percent,BulkDock Fragalysis export

>  <subsites>  (343) 
1 - Z4590/B/203/1

>  <smiles>  (343) 
CC(C)c1cc(C(=O)Nc2cc3c(cc2F)CNC3=O)c2cnn(-c3ccccc3F)c2n1

>  <HIPPO Pose ID>  (343) 
116222

>  <energy_score>  (343) 
-27.805404

>  <inchikey>  (343) 
MOTCVFFYJKEKCR-UHFFFAOYSA-N

>  <gnina_score_min>  (343) 
6.489

>  <gnina_score>  (343) 
6.304

>  <ref_mols>  (343) 
Z3556a

>  <HIPPO Compound ID>  (343) 
179492

>  <distance_score>  (343) 
0.536586

>  <rmsd(smina/fragmenstein)>  (343) 
0.642

>  <ref_pdb>  (343) 
Z3556a

>  <inspiration_score>  (343) 
None

$$$$
P116223
     RDKit          3D

 33 37  0  0  0  0  0  0  0  0999 V2000
   -8.0903    3.6805  -19.5096 C   0  0  0  0  0  0  0  0  0  0  0  0
   -8.5766    4.3579  -18.2436 C   0  0  0  0  0  0  0  0  0  0  0  0
   -9.7478    3.5628  -17.7306 C   0  0  0  0  0  0  0  0  0  0  0  0
   -7.4755    4.6015  -17.2396 C   0  0  0  0  0  0  0  0  0  0  0  0
   -7.7134    4.8021  -15.8790 C   0  0  0  0  0  0  0  0  0  0  0  0
   -6.6489    5.1791  -15.0568 C   0  0  0  0  0  0  0  0  0  0  0  0
   -6.8677    5.5793  -13.6602 C   0  0  0  0  0  0  0  0  0  0  0  0
   -6.6275    6.6851  -13.3739 O   0  0  0  0  0  0  0  0  0  0  0  0
   -7.3679    4.4060  -12.7899 N   0  0  0  0  0  0  0  0  0  0  0  0
   -7.7547    4.3725  -11.4510 C   0  0  0  0  0  0  0  0  0  0  0  0
   -7.7907    5.5638  -10.6977 C   0  0  0  0  0  0  0  0  0  0  0  0
   -8.1565    5.5550   -9.3517 C   0  0  0  0  0  0  0  0  0  0  0  0
   -8.4711    4.3353   -8.7933 C   0  0  0  0  0  0  0  0  0  0  0  0
   -8.4455    3.1451   -9.5191 C   0  0  0  0  0  0  0  0  0  0  0  0
   -8.0922    3.1474  -10.8607 C   0  0  0  0  0  0  0  0  0  0  0  0
   -8.8588    2.0144   -8.6365 C   0  0  0  0  0  0  0  0  0  0  0  0
   -9.1784    2.6918   -7.3909 N   0  0  0  0  0  0  0  0  0  0  0  0
   -9.9238    2.0409   -6.3486 C   0  0  0  0  0  0  0  0  0  0  0  0
   -8.9546    4.0500   -7.4387 C   0  0  0  0  0  0  0  0  0  0  0  0
   -9.1651    4.8958   -6.5887 O   0  0  0  0  0  0  0  0  0  0  0  0
   -5.3845    5.3475  -15.6234 C   0  0  0  0  0  0  0  0  0  0  0  0
   -4.0841    5.6705  -15.2120 C   0  0  0  0  0  0  0  0  0  0  0  0
   -3.2060    5.6665  -16.2185 N   0  0  0  0  0  0  0  0  0  0  0  0
   -3.9751    5.4779  -17.3368 N   0  0  0  0  0  0  0  0  0  0  0  0
   -3.3943    5.5960  -18.6266 C   0  0  0  0  0  0  0  0  0  0  0  0
   -2.0025    5.4715  -18.7583 C   0  0  0  0  0  0  0  0  0  0  0  0
   -1.4010    5.5617  -20.0158 C   0  0  0  0  0  0  0  0  0  0  0  0
   -2.1738    5.7896  -21.1516 C   0  0  0  0  0  0  0  0  0  0  0  0
   -3.5492    5.9577  -21.0235 C   0  0  0  0  0  0  0  0  0  0  0  0
   -4.1513    5.8743  -19.7668 C   0  0  0  0  0  0  0  0  0  0  0  0
   -5.4491    6.1943  -19.7042 F   0  0  0  0  0  0  0  0  0  0  0  0
   -5.2810    5.1759  -16.9887 C   0  0  0  0  0  0  0  0  0  0  0  0
   -6.2689    4.7861  -17.8007 N   0  0  0  0  0  0  0  0  0  0  0  0
  1  2  1  0
  2  3  1  0
  2  4  1  0
  4  5  2  0
  5  6  1  0
  6  7  1  0
  7  8  2  0
  7  9  1  0
  9 10  1  0
 10 11  2  0
 11 12  1  0
 12 13  2  0
 13 14  1  0
 14 15  2  0
 14 16  1  0
 16 17  1  0
 17 18  1  0
 17 19  1  0
 19 20  2  0
  6 21  2  0
 21 22  1  0
 22 23  2  0
 23 24  1  0
 24 25  1  0
 25 26  2  0
 26 27  1  0
 27 28  2  0
 28 29  1  0
 29 30  2  0
 30 31  1  0
 24 32  1  0
 32 33  2  0
 33  4  1  0
 15 10  1  0
 32 21  1  0
 19 13  1  0
 30 25  1  0
M  END
>  <name>  (344) 
P116223

>  <alias>  (344) 
None

>  <smina_score_min>  (344) 
-8.069

>  <exports>  (344) 
['/opt/xchem-fragalysis-2/maxwin/BulkDock/OUTPUTS/openbind_xx01zvns2b_c2_elabs_1LOUTNY.sdf', '/opt/xchem-fragalysis-2/maxwin/BulkDock/OUTPUTS/openbind_xx01zvns2b_c2_elabs_1LSYIIV.sdf']

>  <tags>  (344) 
syndirella_placed,openbind_xx01zvns2b_c2_elabs,openbind_xx01zvns2b_c2_elabs_scored_6.2plus,syndirella_product,openbind_xx01zvns2b_c2_elabs_scored,openbind_xx01zvns2b_c2_elabs_scored_top80percent,BulkDock Fragalysis export

>  <subsites>  (344) 
1 - Z4590/B/203/1

>  <smiles>  (344) 
CC(C)c1cc(C(=O)Nc2ccc3c(c2)CN(C)C3=O)c2cnn(-c3ccccc3F)c2n1

>  <HIPPO Pose ID>  (344) 
116223

>  <energy_score>  (344) 
-36.067169

>  <inchikey>  (344) 
SROLTGSNPCSGSJ-UHFFFAOYSA-N

>  <gnina_score_min>  (344) 
6.353

>  <gnina_score>  (344) 
6.374

>  <ref_mols>  (344) 
Z3556a

>  <HIPPO Compound ID>  (344) 
179493

>  <distance_score>  (344) 
0.714643

>  <rmsd(smina/fragmenstein)>  (344) 
1.063

>  <ref_pdb>  (344) 
Z3556a

>  <inspiration_score>  (344) 
None

$$$$
P116224
     RDKit          3D

 33 37  0  0  0  0  0  0  0  0999 V2000
   -9.4278    2.6569  -17.8940 C   0  0  0  0  0  0  0  0  0  0  0  0
   -9.1789    4.1189  -17.7120 C   0  0  0  0  0  0  0  0  0  0  0  0
   -9.0162    4.6668  -19.0937 C   0  0  0  0  0  0  0  0  0  0  0  0
   -7.9639    4.4098  -16.8626 C   0  0  0  0  0  0  0  0  0  0  0  0
   -8.0984    4.5472  -15.4841 C   0  0  0  0  0  0  0  0  0  0  0  0
   -6.9868    4.9428  -14.7409 C   0  0  0  0  0  0  0  0  0  0  0  0
   -7.1104    5.3364  -13.3235 C   0  0  0  0  0  0  0  0  0  0  0  0
   -6.7483    6.4158  -13.0562 O   0  0  0  0  0  0  0  0  0  0  0  0
   -7.7638    4.2462  -12.4342 N   0  0  0  0  0  0  0  0  0  0  0  0
   -8.0110    4.2250  -11.0581 C   0  0  0  0  0  0  0  0  0  0  0  0
   -7.6920    5.3651  -10.2866 C   0  0  0  0  0  0  0  0  0  0  0  0
   -7.8311    5.3693   -8.8974 C   0  0  0  0  0  0  0  0  0  0  0  0
   -8.2973    4.2140   -8.3119 C   0  0  0  0  0  0  0  0  0  0  0  0
   -8.6605    3.1037   -9.0560 C   0  0  0  0  0  0  0  0  0  0  0  0
   -8.5293    3.0775  -10.4393 C   0  0  0  0  0  0  0  0  0  0  0  0
   -9.1309    2.1004   -8.0912 C   0  0  0  0  0  0  0  0  0  0  0  0
   -9.6425    1.0330   -8.3481 O   0  0  0  0  0  0  0  0  0  0  0  0
   -8.9609    2.6320   -6.8487 N   0  0  0  0  0  0  0  0  0  0  0  0
   -8.4615    3.8914   -6.8953 C   0  0  0  0  0  0  0  0  0  0  0  0
   -8.1760    4.6298   -5.9716 O   0  0  0  0  0  0  0  0  0  0  0  0
   -5.7736    5.1601  -15.4145 C   0  0  0  0  0  0  0  0  0  0  0  0
   -4.4622    5.5496  -15.1055 C   0  0  0  0  0  0  0  0  0  0  0  0
   -3.6620    5.5864  -16.1717 N   0  0  0  0  0  0  0  0  0  0  0  0
   -4.4666    5.2660  -17.2276 N   0  0  0  0  0  0  0  0  0  0  0  0
   -3.9740    5.2886  -18.5667 C   0  0  0  0  0  0  0  0  0  0  0  0
   -4.8483    5.2690  -19.6682 C   0  0  0  0  0  0  0  0  0  0  0  0
   -4.3532    5.2906  -20.9776 C   0  0  0  0  0  0  0  0  0  0  0  0
   -2.9811    5.3187  -21.2057 C   0  0  0  0  0  0  0  0  0  0  0  0
   -2.1061    5.3413  -20.1224 C   0  0  0  0  0  0  0  0  0  0  0  0
   -2.5983    5.3386  -18.8159 C   0  0  0  0  0  0  0  0  0  0  0  0
   -1.6929    5.3562  -17.8280 F   0  0  0  0  0  0  0  0  0  0  0  0
   -5.7578    4.9810  -16.7868 C   0  0  0  0  0  0  0  0  0  0  0  0
   -6.8089    4.5994  -17.5296 N   0  0  0  0  0  0  0  0  0  0  0  0
  1  2  1  0
  2  3  1  0
  2  4  1  0
  4  5  2  0
  5  6  1  0
  6  7  1  0
  7  8  2  0
  7  9  1  0
  9 10  1  0
 10 11  2  0
 11 12  1  0
 12 13  2  0
 13 14  1  0
 14 15  2  0
 14 16  1  0
 16 17  2  0
 16 18  1  0
 18 19  1  0
 19 20  2  0
  6 21  2  0
 21 22  1  0
 22 23  2  0
 23 24  1  0
 24 25  1  0
 25 26  2  0
 26 27  1  0
 27 28  2  0
 28 29  1  0
 29 30  2  0
 30 31  1  0
 24 32  1  0
 32 33  2  0
 33  4  1  0
 15 10  1  0
 32 21  1  0
 19 13  1  0
 30 25  1  0
M  END
>  <name>  (345) 
P116224

>  <alias>  (345) 
None

>  <smina_score_min>  (345) 
-8.226

>  <exports>  (345) 
['/opt/xchem-fragalysis-2/maxwin/BulkDock/OUTPUTS/openbind_xx01zvns2b_c2_elabs_1LOUTNY.sdf', '/opt/xchem-fragalysis-2/maxwin/BulkDock/OUTPUTS/openbind_xx01zvns2b_c2_elabs_1LSYIIV.sdf']

>  <tags>  (345) 
syndirella_placed,openbind_xx01zvns2b_c2_elabs,openbind_xx01zvns2b_c2_elabs_scored_6.2plus,syndirella_product,openbind_xx01zvns2b_c2_elabs_scored,openbind_xx01zvns2b_c2_elabs_scored_top80percent,BulkDock Fragalysis export

>  <subsites>  (345) 
1 - Z4590/B/203/1

>  <smiles>  (345) 
CC(C)c1cc(C(=O)Nc2ccc3c(c2)C(=O)NC3=O)c2cnn(-c3ccccc3F)c2n1

>  <HIPPO Pose ID>  (345) 
116224

>  <energy_score>  (345) 
-45.378217

>  <inchikey>  (345) 
DNVFJBXUZJBOGO-UHFFFAOYSA-N

>  <gnina_score_min>  (345) 
6.384

>  <gnina_score>  (345) 
6.198

>  <ref_mols>  (345) 
Z3556a

>  <HIPPO Compound ID>  (345) 
179494

>  <distance_score>  (345) 
0.518185

>  <rmsd(smina/fragmenstein)>  (345) 
0.767

>  <ref_pdb>  (345) 
Z3556a

>  <inspiration_score>  (345) 
None

$$$$
P116228
     RDKit          3D

 33 37  0  0  0  0  0  0  0  0999 V2000
   -9.2627    3.8575  -18.1957 C   0  0  0  0  0  0  0  0  0  0  0  0
   -8.1259    4.3645  -17.3545 C   0  0  0  0  0  0  0  0  0  0  0  0
   -8.2751    4.4544  -15.9700 C   0  0  0  0  0  0  0  0  0  0  0  0
   -7.2340    4.9978  -15.2093 C   0  0  0  0  0  0  0  0  0  0  0  0
   -7.4444    5.3928  -13.8018 C   0  0  0  0  0  0  0  0  0  0  0  0
   -7.2837    6.5598  -13.5793 O   0  0  0  0  0  0  0  0  0  0  0  0
   -7.8267    4.3177  -12.9357 N   0  0  0  0  0  0  0  0  0  0  0  0
   -8.0392    4.2841  -11.5537 C   0  0  0  0  0  0  0  0  0  0  0  0
   -8.0199    5.4708  -10.7902 C   0  0  0  0  0  0  0  0  0  0  0  0
   -8.2118    5.4438   -9.4057 C   0  0  0  0  0  0  0  0  0  0  0  0
   -8.4316    4.2142   -8.8220 C   0  0  0  0  0  0  0  0  0  0  0  0
   -8.4609    3.0307   -9.5548 C   0  0  0  0  0  0  0  0  0  0  0  0
   -8.2628    3.0497  -10.9287 C   0  0  0  0  0  0  0  0  0  0  0  0
   -8.6880    1.8789   -8.6326 C   0  0  0  0  0  0  0  0  0  0  0  0
   -8.8839    2.5264   -7.3505 N   0  0  0  0  0  0  0  0  0  0  0  0
   -8.6362    3.8809   -7.4081 C   0  0  0  0  0  0  0  0  0  0  0  0
   -8.5607    4.6612   -6.4781 O   0  0  0  0  0  0  0  0  0  0  0  0
   -6.0540    5.3787  -15.8675 C   0  0  0  0  0  0  0  0  0  0  0  0
   -4.7835    5.9372  -15.5517 C   0  0  0  0  0  0  0  0  0  0  0  0
   -4.2307    6.2665  -14.2131 C   0  0  0  0  0  0  0  0  0  0  0  0
   -4.0560    6.1907  -16.6538 N   0  0  0  0  0  0  0  0  0  0  0  0
   -4.8771    5.8104  -17.6670 N   0  0  0  0  0  0  0  0  0  0  0  0
   -4.5706    6.2305  -19.0196 C   0  0  0  0  0  0  0  0  0  0  0  0
   -4.9964    7.6845  -19.2836 C   0  0  0  0  0  0  0  0  0  0  0  0
   -5.5296    7.9385  -20.3271 O   0  0  0  0  0  0  0  0  0  0  0  0
   -4.5877    8.5453  -18.2040 N   0  0  0  0  0  0  0  0  0  0  0  0
   -4.7749    9.9547  -18.0000 C   0  0  0  0  0  0  0  0  0  0  0  0
   -3.7231   10.8022  -18.7213 C   0  0  0  0  0  0  0  0  0  0  0  0
   -3.3923   11.9590  -17.7759 C   0  0  0  0  0  0  0  0  0  0  0  0
   -4.3812   11.8500  -16.6226 C   0  0  0  0  0  0  0  0  0  0  0  0
   -4.6681   10.3611  -16.5361 C   0  0  0  0  0  0  0  0  0  0  0  0
   -6.0462    5.2499  -17.2455 C   0  0  0  0  0  0  0  0  0  0  0  0
   -7.0226    4.7633  -18.0268 N   0  0  0  0  0  0  0  0  0  0  0  0
  1  2  1  0
  2  3  2  0
  3  4  1  0
  4  5  1  0
  5  6  2  0
  5  7  1  0
  7  8  1  0
  8  9  2  0
  9 10  1  0
 10 11  2  0
 11 12  1  0
 12 13  2  0
 12 14  1  0
 14 15  1  0
 15 16  1  0
 16 17  2  0
  4 18  2  0
 18 19  1  0
 19 20  1  0
 19 21  2  0
 21 22  1  0
 22 23  1  0
 23 24  1  0
 24 25  2  0
 24 26  1  0
 26 27  1  0
 27 28  1  0
 28 29  1  0
 29 30  1  0
 30 31  1  0
 22 32  1  0
 32 33  2  0
 33  2  1  0
 13  8  1  0
 32 18  1  0
 16 11  1  0
 31 27  1  0
M  END
>  <name>  (346) 
P116228

>  <alias>  (346) 
None

>  <smina_score_min>  (346) 
-8.23

>  <exports>  (346) 
['/opt/xchem-fragalysis-2/maxwin/BulkDock/OUTPUTS/openbind_xx01zvns2b_c2_elabs_1LOUTNY.sdf', '/opt/xchem-fragalysis-2/maxwin/BulkDock/OUTPUTS/openbind_xx01zvns2b_c2_elabs_1LSYIIV.sdf']

>  <tags>  (346) 
syndirella_placed,openbind_xx01zvns2b_c2_elabs,openbind_xx01zvns2b_c2_elabs_scored_6.2plus,syndirella_product,openbind_xx01zvns2b_c2_elabs_scored,openbind_xx01zvns2b_c2_elabs_scored_top80percent,BulkDock Fragalysis export

>  <subsites>  (346) 
1 - Z4590/B/203/1

>  <smiles>  (346) 
Cc1cc(C(=O)Nc2ccc3c(c2)CNC3=O)c2c(C)nn(CC(=O)NC3CCCC3)c2n1

>  <HIPPO Pose ID>  (346) 
116228

>  <energy_score>  (346) 
-30.100807

>  <inchikey>  (346) 
BTMHYOWYRUGDKW-UHFFFAOYSA-N

>  <gnina_score_min>  (346) 
6.258

>  <gnina_score>  (346) 
6.213

>  <ref_mols>  (346) 
Z3556a

>  <HIPPO Compound ID>  (346) 
179504

>  <distance_score>  (346) 
0.526736

>  <rmsd(smina/fragmenstein)>  (346) 
0.654

>  <ref_pdb>  (346) 
Z3556a

>  <inspiration_score>  (346) 
None

$$$$
P116238
     RDKit          3D

 33 37  0  0  0  0  0  0  0  0999 V2000
   -9.3664    2.9443  -18.1454 C   0  0  0  0  0  0  0  0  0  0  0  0
   -9.1606    4.4077  -17.9266 C   0  0  0  0  0  0  0  0  0  0  0  0
   -7.9514    4.6475  -17.0631 C   0  0  0  0  0  0  0  0  0  0  0  0
   -8.0916    4.7390  -15.6734 C   0  0  0  0  0  0  0  0  0  0  0  0
   -6.9746    5.0659  -14.9023 C   0  0  0  0  0  0  0  0  0  0  0  0
   -7.0847    5.4437  -13.4777 C   0  0  0  0  0  0  0  0  0  0  0  0
   -6.6400    6.4867  -13.1894 O   0  0  0  0  0  0  0  0  0  0  0  0
   -7.8096    4.3842  -12.6064 N   0  0  0  0  0  0  0  0  0  0  0  0
   -8.0450    4.3488  -11.2262 C   0  0  0  0  0  0  0  0  0  0  0  0
   -7.7513    5.4952  -10.4578 C   0  0  0  0  0  0  0  0  0  0  0  0
   -7.8968    5.5087   -9.0681 C   0  0  0  0  0  0  0  0  0  0  0  0
   -8.3507    4.3605   -8.4564 C   0  0  0  0  0  0  0  0  0  0  0  0
   -8.6878    3.2403   -9.2174 C   0  0  0  0  0  0  0  0  0  0  0  0
   -8.5393    3.1989  -10.6000 C   0  0  0  0  0  0  0  0  0  0  0  0
   -9.1714    2.2225   -8.2691 C   0  0  0  0  0  0  0  0  0  0  0  0
   -9.5744    1.1099   -8.5224 O   0  0  0  0  0  0  0  0  0  0  0  0
   -9.1235    2.7730   -7.0028 N   0  0  0  0  0  0  0  0  0  0  0  0
   -8.5333    4.0798   -7.0053 C   0  0  0  0  0  0  0  0  0  0  0  0
   -5.7499    5.2398  -15.5629 C   0  0  0  0  0  0  0  0  0  0  0  0
   -4.4163    5.5735  -15.2431 C   0  0  0  0  0  0  0  0  0  0  0  0
   -3.6083    5.5939  -16.3111 N   0  0  0  0  0  0  0  0  0  0  0  0
   -4.4528    5.3113  -17.3385 N   0  0  0  0  0  0  0  0  0  0  0  0
   -3.9615    5.2129  -18.7017 C   0  0  0  0  0  0  0  0  0  0  0  0
   -4.0698    6.5216  -19.4448 C   0  0  0  0  0  0  0  0  0  0  0  0
   -3.2261    7.5975  -19.1380 C   0  0  0  0  0  0  0  0  0  0  0  0
   -3.3207    8.8044  -19.8408 C   0  0  0  0  0  0  0  0  0  0  0  0
   -4.2547    8.9479  -20.8669 C   0  0  0  0  0  0  0  0  0  0  0  0
   -4.4529   10.0693  -21.6256 O   0  0  0  0  0  0  0  0  0  0  0  0
   -3.5578   11.1525  -21.4049 C   0  0  0  0  0  0  0  0  0  0  0  0
   -5.0941    7.8767  -21.1762 C   0  0  0  0  0  0  0  0  0  0  0  0
   -5.0143    6.6771  -20.4662 C   0  0  0  0  0  0  0  0  0  0  0  0
   -5.7409    5.0877  -16.9371 C   0  0  0  0  0  0  0  0  0  0  0  0
   -6.7861    4.8009  -17.7271 N   0  0  0  0  0  0  0  0  0  0  0  0
  1  2  1  0
  2  3  1  0
  3  4  2  0
  4  5  1  0
  5  6  1  0
  6  7  2  0
  6  8  1  0
  8  9  1  0
  9 10  2  0
 10 11  1  0
 11 12  2  0
 12 13  1  0
 13 14  2  0
 13 15  1  0
 15 16  2  0
 15 17  1  0
 17 18  1  0
  5 19  2  0
 19 20  1  0
 20 21  2  0
 21 22  1  0
 22 23  1  0
 23 24  1  0
 24 25  2  0
 25 26  1  0
 26 27  2  0
 27 28  1  0
 28 29  1  0
 27 30  1  0
 30 31  2  0
 22 32  1  0
 32 33  2  0
 33  3  1  0
 14  9  1  0
 32 19  1  0
 18 12  1  0
 31 24  1  0
M  END
>  <name>  (347) 
P116238

>  <alias>  (347) 
None

>  <smina_score_min>  (347) 
-8.161

>  <exports>  (347) 
['/opt/xchem-fragalysis-2/maxwin/BulkDock/OUTPUTS/openbind_xx01zvns2b_c2_elabs_1LOUTNY.sdf', '/opt/xchem-fragalysis-2/maxwin/BulkDock/OUTPUTS/openbind_xx01zvns2b_c2_elabs_1LSYIIV.sdf']

>  <tags>  (347) 
syndirella_placed,openbind_xx01zvns2b_c2_elabs,openbind_xx01zvns2b_c2_elabs_scored_6.2plus,syndirella_product,openbind_xx01zvns2b_c2_elabs_scored,openbind_xx01zvns2b_c2_elabs_scored_top80percent,BulkDock Fragalysis export

>  <subsites>  (347) 
1 - Z4590/B/203/1

>  <smiles>  (347) 
CCc1cc(C(=O)Nc2ccc3c(c2)C(=O)NC3)c2cnn(Cc3ccc(OC)cc3)c2n1

>  <HIPPO Pose ID>  (347) 
116238

>  <energy_score>  (347) 
-47.228719

>  <inchikey>  (347) 
KJAULZRECIUPJM-UHFFFAOYSA-N

>  <gnina_score_min>  (347) 
6.358

>  <gnina_score>  (347) 
6.173

>  <ref_mols>  (347) 
Z3556a

>  <HIPPO Compound ID>  (347) 
179515

>  <distance_score>  (347) 
0.484638

>  <rmsd(smina/fragmenstein)>  (347) 
1.231

>  <ref_pdb>  (347) 
Z3556a

>  <inspiration_score>  (347) 
None

$$$$
P116239
     RDKit          3D

 33 38  0  0  0  0  0  0  0  0999 V2000
   -9.2748    3.9155  -18.2291 C   0  0  0  0  0  0  0  0  0  0  0  0
   -8.1020    4.3757  -17.4108 C   0  0  0  0  0  0  0  0  0  0  0  0
   -8.2572    4.6022  -16.0492 C   0  0  0  0  0  0  0  0  0  0  0  0
   -7.1640    5.0713  -15.3234 C   0  0  0  0  0  0  0  0  0  0  0  0
   -7.3319    5.5337  -13.9399 C   0  0  0  0  0  0  0  0  0  0  0  0
   -7.1678    6.6669  -13.7177 O   0  0  0  0  0  0  0  0  0  0  0  0
   -7.6539    4.3651  -12.9881 N   0  0  0  0  0  0  0  0  0  0  0  0
   -7.9259    4.3594  -11.6229 C   0  0  0  0  0  0  0  0  0  0  0  0
   -7.8740    5.5503  -10.8741 C   0  0  0  0  0  0  0  0  0  0  0  0
   -8.1288    5.5519   -9.5001 C   0  0  0  0  0  0  0  0  0  0  0  0
   -8.4582    4.3519   -8.9070 C   0  0  0  0  0  0  0  0  0  0  0  0
   -8.5225    3.1705   -9.6502 C   0  0  0  0  0  0  0  0  0  0  0  0
   -8.2432    3.1493  -11.0045 C   0  0  0  0  0  0  0  0  0  0  0  0
   -8.9340    2.0567   -8.7409 C   0  0  0  0  0  0  0  0  0  0  0  0
   -9.5402    2.7698   -7.5931 N   0  0  0  0  0  0  0  0  0  0  0  0
   -9.4920    1.9880   -6.3817 C   0  0  0  0  0  0  0  0  0  0  0  0
   -8.8096    4.0454   -7.4861 C   0  0  0  0  0  0  0  0  0  0  0  0
   -5.9290    5.2201  -15.9640 C   0  0  0  0  0  0  0  0  0  0  0  0
   -4.6023    5.5525  -15.6409 C   0  0  0  0  0  0  0  0  0  0  0  0
   -4.0879    5.8607  -14.2047 C   0  0  0  0  0  0  0  0  0  0  0  0
   -2.7709    6.5698  -14.0103 C   0  0  0  0  0  0  0  0  0  0  0  0
   -4.0559    7.2941  -13.7400 C   0  0  0  0  0  0  0  0  0  0  0  0
   -3.7857    5.5161  -16.6920 N   0  0  0  0  0  0  0  0  0  0  0  0
   -4.5931    5.2256  -17.7497 N   0  0  0  0  0  0  0  0  0  0  0  0
   -4.0853    5.2432  -19.0795 C   0  0  0  0  0  0  0  0  0  0  0  0
   -4.9517    5.3039  -20.1844 C   0  0  0  0  0  0  0  0  0  0  0  0
   -4.4453    5.3428  -21.4879 C   0  0  0  0  0  0  0  0  0  0  0  0
   -3.0713    5.3065  -21.7061 C   0  0  0  0  0  0  0  0  0  0  0  0
   -2.2048    5.2450  -20.6174 C   0  0  0  0  0  0  0  0  0  0  0  0
   -2.7067    5.2224  -19.3152 C   0  0  0  0  0  0  0  0  0  0  0  0
   -1.8124    5.1430  -18.3199 F   0  0  0  0  0  0  0  0  0  0  0  0
   -5.8985    4.9736  -17.3282 C   0  0  0  0  0  0  0  0  0  0  0  0
   -6.9435    4.5593  -18.0784 N   0  0  0  0  0  0  0  0  0  0  0  0
  1  2  1  0
  2  3  2  0
  3  4  1  0
  4  5  1  0
  5  6  2  0
  5  7  1  0
  7  8  1  0
  8  9  2  0
  9 10  1  0
 10 11  2  0
 11 12  1  0
 12 13  2  0
 12 14  1  0
 14 15  1  0
 15 16  1  0
 15 17  1  0
  4 18  2  0
 18 19  1  0
 19 20  1  0
 20 21  1  0
 21 22  1  0
 19 23  2  0
 23 24  1  0
 24 25  1  0
 25 26  2  0
 26 27  1  0
 27 28  2  0
 28 29  1  0
 29 30  2  0
 30 31  1  0
 24 32  1  0
 32 33  2  0
 33  2  1  0
 13  8  1  0
 32 18  1  0
 17 11  1  0
 22 20  1  0
 30 25  1  0
M  END
>  <name>  (348) 
P116239

>  <alias>  (348) 
None

>  <smina_score_min>  (348) 
-9.535

>  <exports>  (348) 
['/opt/xchem-fragalysis-2/maxwin/BulkDock/OUTPUTS/openbind_xx01zvns2b_c2_elabs_1LOUTNY.sdf', '/opt/xchem-fragalysis-2/maxwin/BulkDock/OUTPUTS/openbind_xx01zvns2b_c2_elabs_1LSYIIV.sdf']

>  <tags>  (348) 
syndirella_placed,openbind_xx01zvns2b_c2_elabs,openbind_xx01zvns2b_c2_elabs_scored_6.2plus,syndirella_product,openbind_xx01zvns2b_c2_elabs_scored,openbind_xx01zvns2b_c2_elabs_scored_top80percent,BulkDock Fragalysis export

>  <subsites>  (348) 
1 - Z4590/B/203/1

>  <smiles>  (348) 
Cc1cc(C(=O)Nc2ccc3c(c2)CN(C)C3)c2c(C3CC3)nn(-c3ccccc3F)c2n1

>  <HIPPO Pose ID>  (348) 
116239

>  <energy_score>  (348) 
-27.281642

>  <inchikey>  (348) 
QGXTWGAWURRRON-UHFFFAOYSA-N

>  <gnina_score_min>  (348) 
6.799

>  <gnina_score>  (348) 
6.64

>  <ref_mols>  (348) 
Z3556a

>  <HIPPO Compound ID>  (348) 
179516

>  <distance_score>  (348) 
0.503266

>  <rmsd(smina/fragmenstein)>  (348) 
0.734

>  <ref_pdb>  (348) 
Z3556a

>  <inspiration_score>  (348) 
None

$$$$
P116240
     RDKit          3D

 33 38  0  0  0  0  0  0  0  0999 V2000
   -9.2830    3.8884  -18.1915 C   0  0  0  0  0  0  0  0  0  0  0  0
   -8.1391    4.3469  -17.3327 C   0  0  0  0  0  0  0  0  0  0  0  0
   -8.3228    4.5241  -15.9662 C   0  0  0  0  0  0  0  0  0  0  0  0
   -7.2583    4.9997  -15.2011 C   0  0  0  0  0  0  0  0  0  0  0  0
   -7.4714    5.4426  -13.8117 C   0  0  0  0  0  0  0  0  0  0  0  0
   -7.3197    6.5770  -13.5796 O   0  0  0  0  0  0  0  0  0  0  0  0
   -7.8839    4.2773  -12.8851 N   0  0  0  0  0  0  0  0  0  0  0  0
   -8.0967    4.2473  -11.5049 C   0  0  0  0  0  0  0  0  0  0  0  0
   -8.0639    5.4356  -10.7478 C   0  0  0  0  0  0  0  0  0  0  0  0
   -8.2477    5.4130   -9.3617 C   0  0  0  0  0  0  0  0  0  0  0  0
   -8.4722    4.1862   -8.7717 C   0  0  0  0  0  0  0  0  0  0  0  0
   -8.5148    3.0009   -9.5007 C   0  0  0  0  0  0  0  0  0  0  0  0
   -8.3266    3.0162  -10.8759 C   0  0  0  0  0  0  0  0  0  0  0  0
   -8.7320    1.8518   -8.5733 C   0  0  0  0  0  0  0  0  0  0  0  0
   -8.9116    2.5021   -7.2903 N   0  0  0  0  0  0  0  0  0  0  0  0
   -8.6636    3.8567   -7.3546 C   0  0  0  0  0  0  0  0  0  0  0  0
   -8.5791    4.6387   -6.4267 O   0  0  0  0  0  0  0  0  0  0  0  0
   -6.0185    5.2027  -15.8213 C   0  0  0  0  0  0  0  0  0  0  0  0
   -4.7104    5.5727  -15.4695 C   0  0  0  0  0  0  0  0  0  0  0  0
   -4.2381    5.8780  -14.0208 C   0  0  0  0  0  0  0  0  0  0  0  0
   -4.1604    4.7487  -13.0234 C   0  0  0  0  0  0  0  0  0  0  0  0
   -2.8998    5.3650  -13.5531 C   0  0  0  0  0  0  0  0  0  0  0  0
   -3.8759    5.6092  -16.5067 N   0  0  0  0  0  0  0  0  0  0  0  0
   -4.6450    5.2745  -17.5820 N   0  0  0  0  0  0  0  0  0  0  0  0
   -4.1022    5.2853  -18.8994 C   0  0  0  0  0  0  0  0  0  0  0  0
   -4.9380    5.3010  -20.0297 C   0  0  0  0  0  0  0  0  0  0  0  0
   -4.3964    5.3256  -21.3199 C   0  0  0  0  0  0  0  0  0  0  0  0
   -3.0165    5.3192  -21.4995 C   0  0  0  0  0  0  0  0  0  0  0  0
   -2.1799    5.3009  -20.3859 C   0  0  0  0  0  0  0  0  0  0  0  0
   -2.7176    5.2941  -19.0975 C   0  0  0  0  0  0  0  0  0  0  0  0
   -1.8484    5.2598  -18.0777 F   0  0  0  0  0  0  0  0  0  0  0  0
   -5.9542    4.9933  -17.1909 C   0  0  0  0  0  0  0  0  0  0  0  0
   -6.9757    4.5819  -17.9718 N   0  0  0  0  0  0  0  0  0  0  0  0
  1  2  1  0
  2  3  2  0
  3  4  1  0
  4  5  1  0
  5  6  2  0
  5  7  1  0
  7  8  1  0
  8  9  2  0
  9 10  1  0
 10 11  2  0
 11 12  1  0
 12 13  2  0
 12 14  1  0
 14 15  1  0
 15 16  1  0
 16 17  2  0
  4 18  2  0
 18 19  1  0
 19 20  1  0
 20 21  1  0
 21 22  1  0
 19 23  2  0
 23 24  1  0
 24 25  1  0
 25 26  2  0
 26 27  1  0
 27 28  2  0
 28 29  1  0
 29 30  2  0
 30 31  1  0
 24 32  1  0
 32 33  2  0
 33  2  1  0
 13  8  1  0
 32 18  1  0
 16 11  1  0
 22 20  1  0
 30 25  1  0
M  END
>  <name>  (349) 
P116240

>  <alias>  (349) 
None

>  <smina_score_min>  (349) 
-9.858

>  <exports>  (349) 
['/opt/xchem-fragalysis-2/maxwin/BulkDock/OUTPUTS/openbind_xx01zvns2b_c2_elabs_1LOUTNY.sdf', '/opt/xchem-fragalysis-2/maxwin/BulkDock/OUTPUTS/openbind_xx01zvns2b_c2_elabs_1LSYIIV.sdf']

>  <tags>  (349) 
syndirella_placed,openbind_xx01zvns2b_c2_elabs,openbind_xx01zvns2b_c2_elabs_scored_6.2plus,syndirella_product,openbind_xx01zvns2b_c2_elabs_scored,openbind_xx01zvns2b_c2_elabs_scored_top80percent,BulkDock Fragalysis export

>  <subsites>  (349) 
1 - Z4590/B/203/1

>  <smiles>  (349) 
Cc1cc(C(=O)Nc2ccc3c(c2)CNC3=O)c2c(C3CC3)nn(-c3ccccc3F)c2n1

>  <HIPPO Pose ID>  (349) 
116240

>  <energy_score>  (349) 
-46.141735

>  <inchikey>  (349) 
KOJWUIASZAAHEN-UHFFFAOYSA-N

>  <gnina_score_min>  (349) 
6.795

>  <gnina_score>  (349) 
6.64

>  <ref_mols>  (349) 
Z3556a

>  <HIPPO Compound ID>  (349) 
179517

>  <distance_score>  (349) 
0.346833

>  <rmsd(smina/fragmenstein)>  (349) 
0.547

>  <ref_pdb>  (349) 
Z3556a

>  <inspiration_score>  (349) 
None

$$$$
P116241
     RDKit          3D

 33 38  0  0  0  0  0  0  0  0999 V2000
   -9.2610    3.9333  -18.0575 C   0  0  0  0  0  0  0  0  0  0  0  0
   -8.1141    4.3637  -17.1866 C   0  0  0  0  0  0  0  0  0  0  0  0
   -8.2869    4.5095  -15.8114 C   0  0  0  0  0  0  0  0  0  0  0  0
   -7.2047    4.9282  -15.0335 C   0  0  0  0  0  0  0  0  0  0  0  0
   -7.3911    5.3760  -13.6388 C   0  0  0  0  0  0  0  0  0  0  0  0
   -7.0967    6.4854  -13.4162 O   0  0  0  0  0  0  0  0  0  0  0  0
   -7.9351    4.2729  -12.6964 N   0  0  0  0  0  0  0  0  0  0  0  0
   -8.1337    4.2778  -11.3092 C   0  0  0  0  0  0  0  0  0  0  0  0
   -7.8644    5.4566  -10.5814 C   0  0  0  0  0  0  0  0  0  0  0  0
   -7.9717    5.5033   -9.1878 C   0  0  0  0  0  0  0  0  0  0  0  0
   -8.3758    4.3600   -8.5324 C   0  0  0  0  0  0  0  0  0  0  0  0
   -8.6963    3.2095   -9.2538 C   0  0  0  0  0  0  0  0  0  0  0  0
   -8.5670    3.1300  -10.6363 C   0  0  0  0  0  0  0  0  0  0  0  0
   -9.1570    2.2135   -8.2712 C   0  0  0  0  0  0  0  0  0  0  0  0
   -9.5625    1.0939   -8.4880 O   0  0  0  0  0  0  0  0  0  0  0  0
   -9.0954    2.8004   -7.0222 N   0  0  0  0  0  0  0  0  0  0  0  0
   -8.5255    4.1155   -7.0706 C   0  0  0  0  0  0  0  0  0  0  0  0
   -5.9604    5.1136  -15.6610 C   0  0  0  0  0  0  0  0  0  0  0  0
   -4.6201    5.3876  -15.3140 C   0  0  0  0  0  0  0  0  0  0  0  0
   -4.0988    5.5335  -13.8538 C   0  0  0  0  0  0  0  0  0  0  0  0
   -3.9755    6.9144  -13.2632 C   0  0  0  0  0  0  0  0  0  0  0  0
   -2.7391    6.1325  -13.5928 C   0  0  0  0  0  0  0  0  0  0  0  0
   -3.7948    5.4020  -16.3646 N   0  0  0  0  0  0  0  0  0  0  0  0
   -4.6293    5.2788  -17.4372 N   0  0  0  0  0  0  0  0  0  0  0  0
   -4.1185    5.4136  -18.7505 C   0  0  0  0  0  0  0  0  0  0  0  0
   -2.7709    5.1212  -19.0038 C   0  0  0  0  0  0  0  0  0  0  0  0
   -2.2709    5.2053  -20.3060 C   0  0  0  0  0  0  0  0  0  0  0  0
   -3.1003    5.5996  -21.3557 C   0  0  0  0  0  0  0  0  0  0  0  0
   -4.4262    5.9404  -21.0967 C   0  0  0  0  0  0  0  0  0  0  0  0
   -4.9244    5.8620  -19.7965 C   0  0  0  0  0  0  0  0  0  0  0  0
   -6.1439    6.3679  -19.5735 F   0  0  0  0  0  0  0  0  0  0  0  0
   -5.9264    4.9826  -17.0408 C   0  0  0  0  0  0  0  0  0  0  0  0
   -6.9530    4.6036  -17.8274 N   0  0  0  0  0  0  0  0  0  0  0  0
  1  2  1  0
  2  3  2  0
  3  4  1  0
  4  5  1  0
  5  6  2  0
  5  7  1  0
  7  8  1  0
  8  9  2  0
  9 10  1  0
 10 11  2  0
 11 12  1  0
 12 13  2  0
 12 14  1  0
 14 15  2  0
 14 16  1  0
 16 17  1  0
  4 18  2  0
 18 19  1  0
 19 20  1  0
 20 21  1  0
 21 22  1  0
 19 23  2  0
 23 24  1  0
 24 25  1  0
 25 26  2  0
 26 27  1  0
 27 28  2  0
 28 29  1  0
 29 30  2  0
 30 31  1  0
 24 32  1  0
 32 33  2  0
 33  2  1  0
 13  8  1  0
 32 18  1  0
 17 11  1  0
 22 20  1  0
 30 25  1  0
M  END
>  <name>  (350) 
P116241

>  <alias>  (350) 
None

>  <smina_score_min>  (350) 
-9.065

>  <exports>  (350) 
['/opt/xchem-fragalysis-2/maxwin/BulkDock/OUTPUTS/openbind_xx01zvns2b_c2_elabs_1LOUTNY.sdf', '/opt/xchem-fragalysis-2/maxwin/BulkDock/OUTPUTS/openbind_xx01zvns2b_c2_elabs_1LSYIIV.sdf']

>  <tags>  (350) 
syndirella_placed,openbind_xx01zvns2b_c2_elabs,openbind_xx01zvns2b_c2_elabs_scored_6.2plus,syndirella_product,openbind_xx01zvns2b_c2_elabs_scored,openbind_xx01zvns2b_c2_elabs_scored_top80percent,BulkDock Fragalysis export

>  <subsites>  (350) 
1 - Z4590/B/203/1

>  <smiles>  (350) 
Cc1cc(C(=O)Nc2ccc3c(c2)C(=O)NC3)c2c(C3CC3)nn(-c3ccccc3F)c2n1

>  <HIPPO Pose ID>  (350) 
116241

>  <energy_score>  (350) 
-22.225755

>  <inchikey>  (350) 
PRRWITVCFUTBDH-UHFFFAOYSA-N

>  <gnina_score_min>  (350) 
6.391

>  <gnina_score>  (350) 
6.486

>  <ref_mols>  (350) 
Z3556a

>  <HIPPO Compound ID>  (350) 
179518

>  <distance_score>  (350) 
0.379326

>  <rmsd(smina/fragmenstein)>  (350) 
0.737

>  <ref_pdb>  (350) 
Z3556a

>  <inspiration_score>  (350) 
None

$$$$
P116243
     RDKit          3D

 33 37  0  0  0  0  0  0  0  0999 V2000
   -3.5559    5.9412  -13.9026 C   0  0  0  0  0  0  0  0  0  0  0  0
   -4.0496    5.6449  -15.2714 C   0  0  0  0  0  0  0  0  0  0  0  0
   -3.1881    5.6100  -16.2965 N   0  0  0  0  0  0  0  0  0  0  0  0
   -3.9613    5.3785  -17.3991 N   0  0  0  0  0  0  0  0  0  0  0  0
   -3.3860    5.4222  -18.7070 C   0  0  0  0  0  0  0  0  0  0  0  0
   -4.1780    5.4062  -19.8668 C   0  0  0  0  0  0  0  0  0  0  0  0
   -3.5845    5.4576  -21.1314 C   0  0  0  0  0  0  0  0  0  0  0  0
   -2.2030    5.5276  -21.2402 C   0  0  0  0  0  0  0  0  0  0  0  0
   -1.6408    5.5711  -22.4556 F   0  0  0  0  0  0  0  0  0  0  0  0
   -1.4027    5.5609  -20.1061 C   0  0  0  0  0  0  0  0  0  0  0  0
   -1.9900    5.5116  -18.8390 C   0  0  0  0  0  0  0  0  0  0  0  0
   -5.2790    5.1506  -17.0407 C   0  0  0  0  0  0  0  0  0  0  0  0
   -6.2897    4.8098  -17.8506 N   0  0  0  0  0  0  0  0  0  0  0  0
   -7.4944    4.6476  -17.2810 C   0  0  0  0  0  0  0  0  0  0  0  0
   -8.6082    4.3725  -18.2611 C   0  0  0  0  0  0  0  0  0  0  0  0
   -9.7549    3.5660  -17.7107 C   0  0  0  0  0  0  0  0  0  0  0  0
   -8.1347    3.6722  -19.5180 C   0  0  0  0  0  0  0  0  0  0  0  0
   -7.7211    4.8846  -15.9286 C   0  0  0  0  0  0  0  0  0  0  0  0
   -6.6454    5.2502  -15.1165 C   0  0  0  0  0  0  0  0  0  0  0  0
   -6.8840    5.6684  -13.7297 C   0  0  0  0  0  0  0  0  0  0  0  0
   -6.7009    6.7870  -13.4533 O   0  0  0  0  0  0  0  0  0  0  0  0
   -7.4267    4.5033  -12.8766 N   0  0  0  0  0  0  0  0  0  0  0  0
   -7.7571    4.4493  -11.5258 C   0  0  0  0  0  0  0  0  0  0  0  0
   -7.6769    5.5981  -10.7173 C   0  0  0  0  0  0  0  0  0  0  0  0
   -7.9980    5.5489   -9.3581 C   0  0  0  0  0  0  0  0  0  0  0  0
   -8.4033    4.3390   -8.8367 C   0  0  0  0  0  0  0  0  0  0  0  0
   -8.4878    3.1988   -9.6388 C   0  0  0  0  0  0  0  0  0  0  0  0
   -8.1683    3.2307  -10.9839 C   0  0  0  0  0  0  0  0  0  0  0  0
   -8.9487    2.0552   -8.7946 C   0  0  0  0  0  0  0  0  0  0  0  0
   -9.5630    2.7243   -7.6255 N   0  0  0  0  0  0  0  0  0  0  0  0
   -9.5463    1.8792   -6.4552 C   0  0  0  0  0  0  0  0  0  0  0  0
   -8.8094    3.9787   -7.4427 C   0  0  0  0  0  0  0  0  0  0  0  0
   -5.3704    5.3581  -15.6779 C   0  0  0  0  0  0  0  0  0  0  0  0
  1  2  1  0
  2  3  2  0
  3  4  1  0
  4  5  1  0
  5  6  2  0
  6  7  1  0
  7  8  2  0
  8  9  1  0
  8 10  1  0
 10 11  2  0
  4 12  1  0
 12 13  2  0
 13 14  1  0
 14 15  1  0
 15 16  1  0
 15 17  1  0
 14 18  2  0
 18 19  1  0
 19 20  1  0
 20 21  2  0
 20 22  1  0
 22 23  1  0
 23 24  2  0
 24 25  1  0
 25 26  2  0
 26 27  1  0
 27 28  2  0
 27 29  1  0
 29 30  1  0
 30 31  1  0
 30 32  1  0
 19 33  2  0
 33  2  1  0
 11  5  1  0
 33 12  1  0
 28 23  1  0
 32 26  1  0
M  END
>  <name>  (351) 
P116243

>  <alias>  (351) 
None

>  <smina_score_min>  (351) 
-7.933

>  <exports>  (351) 
['/opt/xchem-fragalysis-2/maxwin/BulkDock/OUTPUTS/openbind_xx01zvns2b_c2_elabs_1LOUTNY.sdf', '/opt/xchem-fragalysis-2/maxwin/BulkDock/OUTPUTS/openbind_xx01zvns2b_c2_elabs_1LSYIIV.sdf']

>  <tags>  (351) 
syndirella_placed,openbind_xx01zvns2b_c2_elabs,openbind_xx01zvns2b_c2_elabs_scored_6.2plus,syndirella_product,openbind_xx01zvns2b_c2_elabs_scored,openbind_xx01zvns2b_c2_elabs_scored_top80percent,BulkDock Fragalysis export

>  <subsites>  (351) 
1 - Z4590/B/203/1

>  <smiles>  (351) 
Cc1nn(-c2ccc(F)cc2)c2nc(C(C)C)cc(C(=O)Nc3ccc4c(c3)CN(C)C4)c12

>  <HIPPO Pose ID>  (351) 
116243

>  <energy_score>  (351) 
-51.987962

>  <inchikey>  (351) 
UYNHVWDUZQZDIV-UHFFFAOYSA-N

>  <gnina_score_min>  (351) 
6.38

>  <gnina_score>  (351) 
6.424

>  <ref_mols>  (351) 
Z3556a

>  <HIPPO Compound ID>  (351) 
179522

>  <distance_score>  (351) 
0.748822

>  <rmsd(smina/fragmenstein)>  (351) 
0.899

>  <ref_pdb>  (351) 
Z3556a

>  <inspiration_score>  (351) 
None

$$$$
P116245
     RDKit          3D

 33 37  0  0  0  0  0  0  0  0999 V2000
   -9.0003    3.9411  -18.4213 C   0  0  0  0  0  0  0  0  0  0  0  0
   -7.8680    4.4179  -17.5554 C   0  0  0  0  0  0  0  0  0  0  0  0
   -8.0963    4.6501  -16.2009 C   0  0  0  0  0  0  0  0  0  0  0  0
   -7.0441    5.1254  -15.4143 C   0  0  0  0  0  0  0  0  0  0  0  0
   -7.2842    5.5648  -14.0326 C   0  0  0  0  0  0  0  0  0  0  0  0
   -7.2277    6.7469  -13.8478 O   0  0  0  0  0  0  0  0  0  0  0  0
   -7.5846    4.4898  -13.1364 N   0  0  0  0  0  0  0  0  0  0  0  0
   -7.8125    4.4821  -11.7597 C   0  0  0  0  0  0  0  0  0  0  0  0
   -7.7160    5.6613  -10.9953 C   0  0  0  0  0  0  0  0  0  0  0  0
   -7.9662    5.6553   -9.6187 C   0  0  0  0  0  0  0  0  0  0  0  0
   -8.3316    4.4604   -9.0343 C   0  0  0  0  0  0  0  0  0  0  0  0
   -8.4263    3.2886   -9.7881 C   0  0  0  0  0  0  0  0  0  0  0  0
   -8.1538    3.2745  -11.1458 C   0  0  0  0  0  0  0  0  0  0  0  0
   -8.8745    2.1774   -8.8892 C   0  0  0  0  0  0  0  0  0  0  0  0
   -9.4646    2.8941   -7.7348 N   0  0  0  0  0  0  0  0  0  0  0  0
   -9.4599    2.0992   -6.5267 C   0  0  0  0  0  0  0  0  0  0  0  0
   -8.7022    4.1511   -7.6166 C   0  0  0  0  0  0  0  0  0  0  0  0
   -5.7865    5.3085  -16.0023 C   0  0  0  0  0  0  0  0  0  0  0  0
   -4.4774    5.6995  -15.6392 C   0  0  0  0  0  0  0  0  0  0  0  0
   -4.0329    6.0616  -14.1934 C   0  0  0  0  0  0  0  0  0  0  0  0
   -4.1520    7.4938  -13.7392 C   0  0  0  0  0  0  0  0  0  0  0  0
   -2.7963    6.8959  -13.9690 C   0  0  0  0  0  0  0  0  0  0  0  0
   -3.6210    5.6892  -16.6690 N   0  0  0  0  0  0  0  0  0  0  0  0
   -4.4137    5.3465  -17.7195 N   0  0  0  0  0  0  0  0  0  0  0  0
   -3.8562    5.3318  -19.0563 C   0  0  0  0  0  0  0  0  0  0  0  0
   -3.5768    6.7396  -19.5890 C   0  0  0  0  0  0  0  0  0  0  0  0
   -4.0041    7.0394  -20.6690 O   0  0  0  0  0  0  0  0  0  0  0  0
   -2.7323    7.4693  -18.6760 N   0  0  0  0  0  0  0  0  0  0  0  0
   -2.2173    8.8193  -18.7332 C   0  0  0  0  0  0  0  0  0  0  0  0
   -3.3521    9.8352  -18.6608 C   0  0  0  0  0  0  0  0  0  0  0  0
   -1.3629    9.0346  -19.9776 C   0  0  0  0  0  0  0  0  0  0  0  0
   -5.6990    5.0536  -17.3611 C   0  0  0  0  0  0  0  0  0  0  0  0
   -6.6802    4.6227  -18.1714 N   0  0  0  0  0  0  0  0  0  0  0  0
  1  2  1  0
  2  3  2  0
  3  4  1  0
  4  5  1  0
  5  6  2  0
  5  7  1  0
  7  8  1  0
  8  9  2  0
  9 10  1  0
 10 11  2  0
 11 12  1  0
 12 13  2  0
 12 14  1  0
 14 15  1  0
 15 16  1  0
 15 17  1  0
  4 18  2  0
 18 19  1  0
 19 20  1  0
 20 21  1  0
 21 22  1  0
 19 23  2  0
 23 24  1  0
 24 25  1  0
 25 26  1  0
 26 27  2  0
 26 28  1  0
 28 29  1  0
 29 30  1  0
 29 31  1  0
 24 32  1  0
 32 33  2  0
 33  2  1  0
 13  8  1  0
 32 18  1  0
 17 11  1  0
 22 20  1  0
M  END
>  <name>  (352) 
P116245

>  <alias>  (352) 
None

>  <smina_score_min>  (352) 
-7.484

>  <exports>  (352) 
['/opt/xchem-fragalysis-2/maxwin/BulkDock/OUTPUTS/openbind_xx01zvns2b_c2_elabs_1LOUTNY.sdf', '/opt/xchem-fragalysis-2/maxwin/BulkDock/OUTPUTS/openbind_xx01zvns2b_c2_elabs_1LSYIIV.sdf']

>  <tags>  (352) 
syndirella_placed,openbind_xx01zvns2b_c2_elabs,openbind_xx01zvns2b_c2_elabs_scored_6.2plus,syndirella_product,openbind_xx01zvns2b_c2_elabs_scored,openbind_xx01zvns2b_c2_elabs_scored_top80percent,BulkDock Fragalysis export

>  <subsites>  (352) 
1 - Z4590/B/203/1

>  <smiles>  (352) 
Cc1cc(C(=O)Nc2ccc3c(c2)CN(C)C3)c2c(C3CC3)nn(CC(=O)NC(C)C)c2n1

>  <HIPPO Pose ID>  (352) 
116245

>  <energy_score>  (352) 
-70.77157

>  <inchikey>  (352) 
FZGVNTHUNCKSLW-UHFFFAOYSA-N

>  <gnina_score_min>  (352) 
6.395

>  <gnina_score>  (352) 
6.223

>  <ref_mols>  (352) 
Z3556a

>  <HIPPO Compound ID>  (352) 
179525

>  <distance_score>  (352) 
0.657532

>  <rmsd(smina/fragmenstein)>  (352) 
0.901

>  <ref_pdb>  (352) 
Z3556a

>  <inspiration_score>  (352) 
None

$$$$
P116247
     RDKit          3D

 33 37  0  0  0  0  0  0  0  0999 V2000
   -9.6167    4.4465  -19.0896 C   0  0  0  0  0  0  0  0  0  0  0  0
   -9.4128    3.7128  -17.7962 C   0  0  0  0  0  0  0  0  0  0  0  0
   -8.1534    4.1620  -17.1259 C   0  0  0  0  0  0  0  0  0  0  0  0
   -8.1018    4.4755  -15.7851 C   0  0  0  0  0  0  0  0  0  0  0  0
   -6.9360    5.0023  -15.2465 C   0  0  0  0  0  0  0  0  0  0  0  0
   -6.9877    5.4955  -13.8711 C   0  0  0  0  0  0  0  0  0  0  0  0
   -6.4102    6.5202  -13.7792 O   0  0  0  0  0  0  0  0  0  0  0  0
   -7.7533    4.6580  -12.7841 N   0  0  0  0  0  0  0  0  0  0  0  0
   -8.0058    4.9293  -11.4769 C   0  0  0  0  0  0  0  0  0  0  0  0
   -8.0688    6.2823  -11.0511 C   0  0  0  0  0  0  0  0  0  0  0  0
   -8.0236    6.5851   -9.6976 C   0  0  0  0  0  0  0  0  0  0  0  0
   -7.7718    5.5672   -8.8251 C   0  0  0  0  0  0  0  0  0  0  0  0
   -7.6985    4.2549   -9.2798 C   0  0  0  0  0  0  0  0  0  0  0  0
   -7.9422    3.8776  -10.5852 C   0  0  0  0  0  0  0  0  0  0  0  0
   -7.0782    3.4281   -8.2190 C   0  0  0  0  0  0  0  0  0  0  0  0
   -6.3787    4.4181   -7.3150 N   0  0  0  0  0  0  0  0  0  0  0  0
   -5.0082    4.7240   -7.8016 C   0  0  0  0  0  0  0  0  0  0  0  0
   -7.2577    5.6045   -7.4325 C   0  0  0  0  0  0  0  0  0  0  0  0
   -5.8297    5.2203  -16.0744 C   0  0  0  0  0  0  0  0  0  0  0  0
   -4.4923    5.6803  -16.0254 C   0  0  0  0  0  0  0  0  0  0  0  0
   -3.9066    5.6844  -17.2408 N   0  0  0  0  0  0  0  0  0  0  0  0
   -4.8615    5.1567  -18.0547 N   0  0  0  0  0  0  0  0  0  0  0  0
   -4.6319    4.9516  -19.4600 C   0  0  0  0  0  0  0  0  0  0  0  0
   -4.9215    6.0922  -20.3904 C   0  0  0  0  0  0  0  0  0  0  0  0
   -4.9161    7.4240  -19.9754 C   0  0  0  0  0  0  0  0  0  0  0  0
   -5.3530    8.4257  -20.8318 C   0  0  0  0  0  0  0  0  0  0  0  0
   -5.8157    8.1062  -22.1007 C   0  0  0  0  0  0  0  0  0  0  0  0
   -6.3715    8.9706  -22.9862 O   0  0  0  0  0  0  0  0  0  0  0  0
   -6.4723   10.3499  -22.6278 C   0  0  0  0  0  0  0  0  0  0  0  0
   -5.7777    6.7867  -22.5363 C   0  0  0  0  0  0  0  0  0  0  0  0
   -5.3068    5.7858  -21.7058 C   0  0  0  0  0  0  0  0  0  0  0  0
   -6.0132    4.8570  -17.3925 C   0  0  0  0  0  0  0  0  0  0  0  0
   -7.1111    4.3342  -17.9319 N   0  0  0  0  0  0  0  0  0  0  0  0
  1  2  1  0
  2  3  1  0
  3  4  2  0
  4  5  1  0
  5  6  1  0
  6  7  2  0
  6  8  1  0
  8  9  1  0
  9 10  2  0
 10 11  1  0
 11 12  2  0
 12 13  1  0
 13 14  2  0
 13 15  1  0
 15 16  1  0
 16 17  1  0
 16 18  1  0
  5 19  2  0
 19 20  1  0
 20 21  2  0
 21 22  1  0
 22 23  1  0
 23 24  1  0
 24 25  2  0
 25 26  1  0
 26 27  2  0
 27 28  1  0
 28 29  1  0
 27 30  1  0
 30 31  2  0
 22 32  1  0
 32 33  2  0
 33  3  1  0
 14  9  1  0
 32 19  1  0
 18 12  1  0
 31 24  1  0
M  END
>  <name>  (353) 
P116247

>  <alias>  (353) 
None

>  <smina_score_min>  (353) 
-7.627

>  <exports>  (353) 
['/opt/xchem-fragalysis-2/maxwin/BulkDock/OUTPUTS/openbind_xx01zvns2b_c2_elabs_1LOUTNY.sdf', '/opt/xchem-fragalysis-2/maxwin/BulkDock/OUTPUTS/openbind_xx01zvns2b_c2_elabs_1LSYIIV.sdf']

>  <tags>  (353) 
syndirella_placed,openbind_xx01zvns2b_c2_elabs,openbind_xx01zvns2b_c2_elabs_scored_6.2plus,syndirella_product,openbind_xx01zvns2b_c2_elabs_scored,openbind_xx01zvns2b_c2_elabs_scored_top80percent,BulkDock Fragalysis export

>  <subsites>  (353) 
1 - Z4590/B/203/1

>  <smiles>  (353) 
CCc1cc(C(=O)Nc2ccc3c(c2)CN(C)C3)c2cnn(Cc3ccc(OC)cc3)c2n1

>  <HIPPO Pose ID>  (353) 
116247

>  <energy_score>  (353) 
-15.153855

>  <inchikey>  (353) 
YUXBYWOKIXRJTC-UHFFFAOYSA-N

>  <gnina_score_min>  (353) 
6.373

>  <gnina_score>  (353) 
5.908

>  <ref_mols>  (353) 
Z3556a

>  <HIPPO Compound ID>  (353) 
179528

>  <distance_score>  (353) 
1.290225

>  <rmsd(smina/fragmenstein)>  (353) 
0.938

>  <ref_pdb>  (353) 
Z3556a

>  <inspiration_score>  (353) 
None

$$$$
P116248
     RDKit          3D

 33 37  0  0  0  0  0  0  0  0999 V2000
   -9.3635    2.9297  -18.1480 C   0  0  0  0  0  0  0  0  0  0  0  0
   -9.1467    4.4009  -18.0011 C   0  0  0  0  0  0  0  0  0  0  0  0
   -7.9398    4.6704  -17.1423 C   0  0  0  0  0  0  0  0  0  0  0  0
   -8.0959    4.7999  -15.7606 C   0  0  0  0  0  0  0  0  0  0  0  0
   -6.9910    5.1574  -14.9881 C   0  0  0  0  0  0  0  0  0  0  0  0
   -7.1460    5.5334  -13.5724 C   0  0  0  0  0  0  0  0  0  0  0  0
   -6.8496    6.6213  -13.2685 O   0  0  0  0  0  0  0  0  0  0  0  0
   -7.7471    4.3856  -12.7286 N   0  0  0  0  0  0  0  0  0  0  0  0
   -8.0117    4.3090  -11.3601 C   0  0  0  0  0  0  0  0  0  0  0  0
   -7.9564    5.4689  -10.5617 C   0  0  0  0  0  0  0  0  0  0  0  0
   -8.1855    5.4075   -9.1847 C   0  0  0  0  0  0  0  0  0  0  0  0
   -8.4624    4.1694   -8.6441 C   0  0  0  0  0  0  0  0  0  0  0  0
   -8.5244    3.0106   -9.4142 C   0  0  0  0  0  0  0  0  0  0  0  0
   -8.3122    3.0666  -10.7851 C   0  0  0  0  0  0  0  0  0  0  0  0
   -8.7721    1.8369   -8.5255 C   0  0  0  0  0  0  0  0  0  0  0  0
   -8.9649    2.4492   -7.2256 N   0  0  0  0  0  0  0  0  0  0  0  0
   -8.6875    3.7997   -7.2423 C   0  0  0  0  0  0  0  0  0  0  0  0
   -8.6053    4.5509   -6.2891 O   0  0  0  0  0  0  0  0  0  0  0  0
   -5.7593    5.3214  -15.6282 C   0  0  0  0  0  0  0  0  0  0  0  0
   -4.4330    5.6643  -15.2954 C   0  0  0  0  0  0  0  0  0  0  0  0
   -3.6107    5.6563  -16.3523 N   0  0  0  0  0  0  0  0  0  0  0  0
   -4.4408    5.3573  -17.3862 N   0  0  0  0  0  0  0  0  0  0  0  0
   -3.9325    5.2562  -18.7425 C   0  0  0  0  0  0  0  0  0  0  0  0
   -4.0763    6.5509  -19.5033 C   0  0  0  0  0  0  0  0  0  0  0  0
   -3.2680    7.6561  -19.2048 C   0  0  0  0  0  0  0  0  0  0  0  0
   -3.3967    8.8515  -19.9216 C   0  0  0  0  0  0  0  0  0  0  0  0
   -4.3294    8.9543  -20.9536 C   0  0  0  0  0  0  0  0  0  0  0  0
   -4.5604   10.0613  -21.7240 O   0  0  0  0  0  0  0  0  0  0  0  0
   -3.6814   11.1632  -21.5332 C   0  0  0  0  0  0  0  0  0  0  0  0
   -5.1334    7.8542  -21.2548 C   0  0  0  0  0  0  0  0  0  0  0  0
   -5.0199    6.6656  -20.5309 C   0  0  0  0  0  0  0  0  0  0  0  0
   -5.7322    5.1289  -16.9981 C   0  0  0  0  0  0  0  0  0  0  0  0
   -6.7657    4.8091  -17.7944 N   0  0  0  0  0  0  0  0  0  0  0  0
  1  2  1  0
  2  3  1  0
  3  4  2  0
  4  5  1  0
  5  6  1  0
  6  7  2  0
  6  8  1  0
  8  9  1  0
  9 10  2  0
 10 11  1  0
 11 12  2  0
 12 13  1  0
 13 14  2  0
 13 15  1  0
 15 16  1  0
 16 17  1  0
 17 18  2  0
  5 19  2  0
 19 20  1  0
 20 21  2  0
 21 22  1  0
 22 23  1  0
 23 24  1  0
 24 25  2  0
 25 26  1  0
 26 27  2  0
 27 28  1  0
 28 29  1  0
 27 30  1  0
 30 31  2  0
 22 32  1  0
 32 33  2  0
 33  3  1  0
 14  9  1  0
 32 19  1  0
 17 12  1  0
 31 24  1  0
M  END
>  <name>  (354) 
P116248

>  <alias>  (354) 
None

>  <smina_score_min>  (354) 
-8.287

>  <exports>  (354) 
['/opt/xchem-fragalysis-2/maxwin/BulkDock/OUTPUTS/openbind_xx01zvns2b_c2_elabs_1LOUTNY.sdf', '/opt/xchem-fragalysis-2/maxwin/BulkDock/OUTPUTS/openbind_xx01zvns2b_c2_elabs_1LSYIIV.sdf']

>  <tags>  (354) 
syndirella_placed,openbind_xx01zvns2b_c2_elabs,openbind_xx01zvns2b_c2_elabs_scored_6.2plus,syndirella_product,openbind_xx01zvns2b_c2_elabs_scored,openbind_xx01zvns2b_c2_elabs_scored_top80percent,BulkDock Fragalysis export

>  <subsites>  (354) 
1 - Z4590/B/203/1

>  <smiles>  (354) 
CCc1cc(C(=O)Nc2ccc3c(c2)CNC3=O)c2cnn(Cc3ccc(OC)cc3)c2n1

>  <HIPPO Pose ID>  (354) 
116248

>  <energy_score>  (354) 
-29.456026

>  <inchikey>  (354) 
TZYXZIHMEHKLGI-UHFFFAOYSA-N

>  <gnina_score_min>  (354) 
6.519

>  <gnina_score>  (354) 
6.221

>  <ref_mols>  (354) 
Z3556a

>  <HIPPO Compound ID>  (354) 
179529

>  <distance_score>  (354) 
0.429058

>  <rmsd(smina/fragmenstein)>  (354) 
1.005

>  <ref_pdb>  (354) 
Z3556a

>  <inspiration_score>  (354) 
None

$$$$
P116249
     RDKit          3D

 33 37  0  0  0  0  0  0  0  0999 V2000
   -4.0825    5.7627  -13.4597 C   0  0  0  0  0  0  0  0  0  0  0  0
   -4.4333    5.5233  -14.8830 C   0  0  0  0  0  0  0  0  0  0  0  0
   -3.4770    5.5605  -15.8225 N   0  0  0  0  0  0  0  0  0  0  0  0
   -4.1319    5.3519  -17.0025 N   0  0  0  0  0  0  0  0  0  0  0  0
   -3.4293    5.4295  -18.2482 C   0  0  0  0  0  0  0  0  0  0  0  0
   -2.0329    5.5948  -18.2372 C   0  0  0  0  0  0  0  0  0  0  0  0
   -1.3184    5.6728  -19.4367 C   0  0  0  0  0  0  0  0  0  0  0  0
   -1.9957    5.6050  -20.6467 C   0  0  0  0  0  0  0  0  0  0  0  0
   -1.3172    5.6972  -21.7983 F   0  0  0  0  0  0  0  0  0  0  0  0
   -3.3750    5.4556  -20.6804 C   0  0  0  0  0  0  0  0  0  0  0  0
   -4.0935    5.3651  -19.4842 C   0  0  0  0  0  0  0  0  0  0  0  0
   -5.4763    5.1082  -16.7794 C   0  0  0  0  0  0  0  0  0  0  0  0
   -6.4062    4.8411  -17.6988 N   0  0  0  0  0  0  0  0  0  0  0  0
   -7.6642    4.6487  -17.2617 C   0  0  0  0  0  0  0  0  0  0  0  0
   -8.6231    4.5456  -18.4120 C   0  0  0  0  0  0  0  0  0  0  0  0
   -8.1682    3.4873  -19.3879 C   0  0  0  0  0  0  0  0  0  0  0  0
  -10.0974    4.3649  -18.1492 C   0  0  0  0  0  0  0  0  0  0  0  0
   -8.0273    4.7422  -15.9273 C   0  0  0  0  0  0  0  0  0  0  0  0
   -7.0334    5.0681  -14.9973 C   0  0  0  0  0  0  0  0  0  0  0  0
   -7.4101    5.4840  -13.6400 C   0  0  0  0  0  0  0  0  0  0  0  0
   -7.4288    6.6293  -13.4168 O   0  0  0  0  0  0  0  0  0  0  0  0
   -7.7243    4.2821  -12.7263 N   0  0  0  0  0  0  0  0  0  0  0  0
   -8.0257    4.2329  -11.3650 C   0  0  0  0  0  0  0  0  0  0  0  0
   -8.0460    5.4133  -10.5947 C   0  0  0  0  0  0  0  0  0  0  0  0
   -8.2871    5.3720   -9.2187 C   0  0  0  0  0  0  0  0  0  0  0  0
   -8.5179    4.1353   -8.6537 C   0  0  0  0  0  0  0  0  0  0  0  0
   -8.5177    2.9589   -9.3985 C   0  0  0  0  0  0  0  0  0  0  0  0
   -8.2696    2.9918  -10.7635 C   0  0  0  0  0  0  0  0  0  0  0  0
   -8.7572    1.7962   -8.4940 C   0  0  0  0  0  0  0  0  0  0  0  0
   -8.9793    2.4270   -7.2078 N   0  0  0  0  0  0  0  0  0  0  0  0
   -8.7530    3.7861   -7.2482 C   0  0  0  0  0  0  0  0  0  0  0  0
   -8.7151    4.5595   -6.3101 O   0  0  0  0  0  0  0  0  0  0  0  0
   -5.7044    5.2261  -15.4235 C   0  0  0  0  0  0  0  0  0  0  0  0
  1  2  1  0
  2  3  2  0
  3  4  1  0
  4  5  1  0
  5  6  2  0
  6  7  1  0
  7  8  2  0
  8  9  1  0
  8 10  1  0
 10 11  2  0
  4 12  1  0
 12 13  2  0
 13 14  1  0
 14 15  1  0
 15 16  1  0
 15 17  1  0
 14 18  2  0
 18 19  1  0
 19 20  1  0
 20 21  2  0
 20 22  1  0
 22 23  1  0
 23 24  2  0
 24 25  1  0
 25 26  2  0
 26 27  1  0
 27 28  2  0
 27 29  1  0
 29 30  1  0
 30 31  1  0
 31 32  2  0
 19 33  2  0
 33  2  1  0
 11  5  1  0
 33 12  1  0
 28 23  1  0
 31 26  1  0
M  END
>  <name>  (355) 
P116249

>  <alias>  (355) 
None

>  <smina_score_min>  (355) 
-8.931

>  <exports>  (355) 
['/opt/xchem-fragalysis-2/maxwin/BulkDock/OUTPUTS/openbind_xx01zvns2b_c2_elabs_1LOUTNY.sdf', '/opt/xchem-fragalysis-2/maxwin/BulkDock/OUTPUTS/openbind_xx01zvns2b_c2_elabs_1LSYIIV.sdf']

>  <tags>  (355) 
syndirella_placed,openbind_xx01zvns2b_c2_elabs,openbind_xx01zvns2b_c2_elabs_scored_6.2plus,syndirella_product,openbind_xx01zvns2b_c2_elabs_scored,openbind_xx01zvns2b_c2_elabs_scored_top80percent,BulkDock Fragalysis export

>  <subsites>  (355) 
1 - Z4590/B/203/1

>  <smiles>  (355) 
Cc1nn(-c2ccc(F)cc2)c2nc(C(C)C)cc(C(=O)Nc3ccc4c(c3)CNC4=O)c12

>  <HIPPO Pose ID>  (355) 
116249

>  <energy_score>  (355) 
-61.875794

>  <inchikey>  (355) 
PKINSKFXVOXEGB-UHFFFAOYSA-N

>  <gnina_score_min>  (355) 
6.308

>  <gnina_score>  (355) 
6.352

>  <ref_mols>  (355) 
Z3556a

>  <HIPPO Compound ID>  (355) 
179531

>  <distance_score>  (355) 
0.597916

>  <rmsd(smina/fragmenstein)>  (355) 
1.023

>  <ref_pdb>  (355) 
Z3556a

>  <inspiration_score>  (355) 
None

$$$$
P116250
     RDKit          3D

 33 37  0  0  0  0  0  0  0  0999 V2000
   -4.2439    5.7875  -14.0389 C   0  0  0  0  0  0  0  0  0  0  0  0
   -4.7464    5.5217  -15.4112 C   0  0  0  0  0  0  0  0  0  0  0  0
   -3.8932    5.5393  -16.4437 N   0  0  0  0  0  0  0  0  0  0  0  0
   -4.6642    5.2855  -17.5420 N   0  0  0  0  0  0  0  0  0  0  0  0
   -4.0817    5.2897  -18.8473 C   0  0  0  0  0  0  0  0  0  0  0  0
   -4.8743    5.2809  -20.0072 C   0  0  0  0  0  0  0  0  0  0  0  0
   -4.2777    5.2643  -21.2706 C   0  0  0  0  0  0  0  0  0  0  0  0
   -2.8939    5.2444  -21.3782 C   0  0  0  0  0  0  0  0  0  0  0  0
   -2.3314    5.2017  -22.5934 F   0  0  0  0  0  0  0  0  0  0  0  0
   -2.0922    5.2660  -20.2441 C   0  0  0  0  0  0  0  0  0  0  0  0
   -2.6824    5.2998  -18.9771 C   0  0  0  0  0  0  0  0  0  0  0  0
   -5.9849    5.0482  -17.1855 C   0  0  0  0  0  0  0  0  0  0  0  0
   -7.0012    4.7188  -18.0028 N   0  0  0  0  0  0  0  0  0  0  0  0
   -8.1912    4.4963  -17.4155 C   0  0  0  0  0  0  0  0  0  0  0  0
   -9.2619    4.0043  -18.3722 C   0  0  0  0  0  0  0  0  0  0  0  0
   -9.3849    2.5169  -18.1912 C   0  0  0  0  0  0  0  0  0  0  0  0
  -10.6473    4.6075  -18.3158 C   0  0  0  0  0  0  0  0  0  0  0  0
   -8.3959    4.6221  -16.0404 C   0  0  0  0  0  0  0  0  0  0  0  0
   -7.3309    5.0166  -15.2242 C   0  0  0  0  0  0  0  0  0  0  0  0
   -7.5468    5.4594  -13.8321 C   0  0  0  0  0  0  0  0  0  0  0  0
   -7.3628    6.5973  -13.6332 O   0  0  0  0  0  0  0  0  0  0  0  0
   -7.9609    4.3237  -12.8612 N   0  0  0  0  0  0  0  0  0  0  0  0
   -8.1362    4.3339  -11.4693 C   0  0  0  0  0  0  0  0  0  0  0  0
   -7.8505    5.5130  -10.7478 C   0  0  0  0  0  0  0  0  0  0  0  0
   -7.9379    5.5657   -9.3518 C   0  0  0  0  0  0  0  0  0  0  0  0
   -8.3360    4.4273   -8.6844 C   0  0  0  0  0  0  0  0  0  0  0  0
   -8.6676    3.2750   -9.3969 C   0  0  0  0  0  0  0  0  0  0  0  0
   -8.5578    3.1892  -10.7821 C   0  0  0  0  0  0  0  0  0  0  0  0
   -9.1182    2.2852   -8.4040 C   0  0  0  0  0  0  0  0  0  0  0  0
   -9.5281    1.1663   -8.6141 O   0  0  0  0  0  0  0  0  0  0  0  0
   -9.0403    2.8765   -7.1588 N   0  0  0  0  0  0  0  0  0  0  0  0
   -8.4677    4.1898   -7.2191 C   0  0  0  0  0  0  0  0  0  0  0  0
   -6.0660    5.1988  -15.8115 C   0  0  0  0  0  0  0  0  0  0  0  0
  1  2  1  0
  2  3  2  0
  3  4  1  0
  4  5  1  0
  5  6  2  0
  6  7  1  0
  7  8  2  0
  8  9  1  0
  8 10  1  0
 10 11  2  0
  4 12  1  0
 12 13  2  0
 13 14  1  0
 14 15  1  0
 15 16  1  0
 15 17  1  0
 14 18  2  0
 18 19  1  0
 19 20  1  0
 20 21  2  0
 20 22  1  0
 22 23  1  0
 23 24  2  0
 24 25  1  0
 25 26  2  0
 26 27  1  0
 27 28  2  0
 27 29  1  0
 29 30  2  0
 29 31  1  0
 31 32  1  0
 19 33  2  0
 33  2  1  0
 11  5  1  0
 33 12  1  0
 28 23  1  0
 32 26  1  0
M  END
>  <name>  (356) 
P116250

>  <alias>  (356) 
None

>  <smina_score_min>  (356) 
-8.596

>  <exports>  (356) 
['/opt/xchem-fragalysis-2/maxwin/BulkDock/OUTPUTS/openbind_xx01zvns2b_c2_elabs_1LOUTNY.sdf', '/opt/xchem-fragalysis-2/maxwin/BulkDock/OUTPUTS/openbind_xx01zvns2b_c2_elabs_1LSYIIV.sdf']

>  <tags>  (356) 
syndirella_placed,openbind_xx01zvns2b_c2_elabs,openbind_xx01zvns2b_c2_elabs_scored_6.2plus,syndirella_product,openbind_xx01zvns2b_c2_elabs_scored,openbind_xx01zvns2b_c2_elabs_scored_top80percent,BulkDock Fragalysis export

>  <subsites>  (356) 
1 - Z4590/B/203/1

>  <smiles>  (356) 
Cc1nn(-c2ccc(F)cc2)c2nc(C(C)C)cc(C(=O)Nc3ccc4c(c3)C(=O)NC4)c12

>  <HIPPO Pose ID>  (356) 
116250

>  <energy_score>  (356) 
-26.52567

>  <inchikey>  (356) 
JJLSIPFOVLKLFS-UHFFFAOYSA-N

>  <gnina_score_min>  (356) 
6.468

>  <gnina_score>  (356) 
6.538

>  <ref_mols>  (356) 
Z3556a

>  <HIPPO Compound ID>  (356) 
179532

>  <distance_score>  (356) 
0.435128

>  <rmsd(smina/fragmenstein)>  (356) 
0.642

>  <ref_pdb>  (356) 
Z3556a

>  <inspiration_score>  (356) 
None

$$$$
P116261
     RDKit          3D

 33 37  0  0  0  0  0  0  0  0999 V2000
   -2.0202    5.1485  -24.1890 C   0  0  0  0  0  0  0  0  0  0  0  0
   -2.6870    5.3395  -22.8598 C   0  0  0  0  0  0  0  0  0  0  0  0
   -1.9731    5.1140  -21.6791 C   0  0  0  0  0  0  0  0  0  0  0  0
   -2.5477    5.3539  -20.4283 C   0  0  0  0  0  0  0  0  0  0  0  0
   -3.8537    5.8393  -20.3401 C   0  0  0  0  0  0  0  0  0  0  0  0
   -4.4152    6.3699  -19.0531 C   0  0  0  0  0  0  0  0  0  0  0  0
   -4.4065    5.5012  -17.8834 N   0  0  0  0  0  0  0  0  0  0  0  0
   -3.3996    5.6237  -16.9776 N   0  0  0  0  0  0  0  0  0  0  0  0
   -4.0034    5.4300  -15.7949 C   0  0  0  0  0  0  0  0  0  0  0  0
   -3.2246    5.5765  -14.5397 C   0  0  0  0  0  0  0  0  0  0  0  0
   -5.3816    5.1348  -15.9476 C   0  0  0  0  0  0  0  0  0  0  0  0
   -6.5152    4.9800  -15.1473 C   0  0  0  0  0  0  0  0  0  0  0  0
   -6.4725    5.3621  -13.7187 C   0  0  0  0  0  0  0  0  0  0  0  0
   -6.0979    6.4357  -13.4512 O   0  0  0  0  0  0  0  0  0  0  0  0
   -7.0512    4.2484  -12.8154 N   0  0  0  0  0  0  0  0  0  0  0  0
   -7.3667    4.2566  -11.4600 C   0  0  0  0  0  0  0  0  0  0  0  0
   -7.2307    5.4198  -10.6829 C   0  0  0  0  0  0  0  0  0  0  0  0
   -7.6520    5.4469   -9.3491 C   0  0  0  0  0  0  0  0  0  0  0  0
   -8.2018    4.2972   -8.8203 C   0  0  0  0  0  0  0  0  0  0  0  0
   -8.3292    3.1414   -9.5897 C   0  0  0  0  0  0  0  0  0  0  0  0
   -7.9220    3.1000  -10.9096 C   0  0  0  0  0  0  0  0  0  0  0  0
   -8.9272    2.0623   -8.7490 C   0  0  0  0  0  0  0  0  0  0  0  0
   -9.5307    2.7983   -7.6133 N   0  0  0  0  0  0  0  0  0  0  0  0
   -9.5658    1.9848   -6.4188 C   0  0  0  0  0  0  0  0  0  0  0  0
   -8.7193    4.0207   -7.4451 C   0  0  0  0  0  0  0  0  0  0  0  0
   -7.7353    4.6991  -15.7840 C   0  0  0  0  0  0  0  0  0  0  0  0
   -9.1767    4.7372  -14.8567 Cl  0  0  0  0  0  0  0  0  0  0  0  0
   -7.7743    4.5192  -17.1728 C   0  0  0  0  0  0  0  0  0  0  0  0
   -9.0186    4.0669  -17.8943 C   0  0  0  0  0  0  0  0  0  0  0  0
   -6.7063    4.7420  -17.9715 N   0  0  0  0  0  0  0  0  0  0  0  0
   -5.5729    5.0470  -17.3163 C   0  0  0  0  0  0  0  0  0  0  0  0
   -4.5801    6.0426  -21.5262 C   0  0  0  0  0  0  0  0  0  0  0  0
   -3.9970    5.8132  -22.7724 C   0  0  0  0  0  0  0  0  0  0  0  0
  1  2  1  0
  2  3  2  0
  3  4  1  0
  4  5  2  0
  5  6  1  0
  6  7  1  0
  7  8  1  0
  8  9  2  0
  9 10  1  0
  9 11  1  0
 11 12  2  0
 12 13  1  0
 13 14  2  0
 13 15  1  0
 15 16  1  0
 16 17  2  0
 17 18  1  0
 18 19  2  0
 19 20  1  0
 20 21  2  0
 20 22  1  0
 22 23  1  0
 23 24  1  0
 23 25  1  0
 12 26  1  0
 26 27  1  0
 26 28  2  0
 28 29  1  0
 28 30  1  0
 30 31  2  0
  5 32  1  0
 32 33  2  0
 33  2  1  0
 31  7  1  0
 31 11  1  0
 21 16  1  0
 25 19  1  0
M  END
>  <name>  (357) 
P116261

>  <alias>  (357) 
None

>  <smina_score_min>  (357) 
-8.317

>  <exports>  (357) 
['/opt/xchem-fragalysis-2/maxwin/BulkDock/OUTPUTS/openbind_xx01zvns2b_c2_elabs_1LOUTNY.sdf', '/opt/xchem-fragalysis-2/maxwin/BulkDock/OUTPUTS/openbind_xx01zvns2b_c2_elabs_1LSYIIV.sdf']

>  <tags>  (357) 
syndirella_placed,openbind_xx01zvns2b_c2_elabs,openbind_xx01zvns2b_c2_elabs_scored_6.2plus,syndirella_product,openbind_xx01zvns2b_c2_elabs_scored,openbind_xx01zvns2b_c2_elabs_scored_top80percent,BulkDock Fragalysis export

>  <subsites>  (357) 
1 - Z4590/B/203/1

>  <smiles>  (357) 
Cc1ccc(Cn2nc(C)c3c(C(=O)Nc4ccc5c(c4)CN(C)C5)c(Cl)c(C)nc32)cc1

>  <HIPPO Pose ID>  (357) 
116261

>  <energy_score>  (357) 
-21.494219

>  <inchikey>  (357) 
HPSLFVVGXCFBJE-UHFFFAOYSA-N

>  <gnina_score_min>  (357) 
6.647

>  <gnina_score>  (357) 
6.513

>  <ref_mols>  (357) 
Z3556a

>  <HIPPO Compound ID>  (357) 
179550

>  <distance_score>  (357) 
0.803281

>  <rmsd(smina/fragmenstein)>  (357) 
0.799

>  <ref_pdb>  (357) 
Z3556a

>  <inspiration_score>  (357) 
None

$$$$
P116262
     RDKit          3D

 33 37  0  0  0  0  0  0  0  0999 V2000
   -4.2213   10.1666  -21.9598 C   0  0  0  0  0  0  0  0  0  0  0  0
   -4.1634    8.9086  -21.1461 C   0  0  0  0  0  0  0  0  0  0  0  0
   -3.1652    8.7333  -20.1813 C   0  0  0  0  0  0  0  0  0  0  0  0
   -3.0819    7.5430  -19.4544 C   0  0  0  0  0  0  0  0  0  0  0  0
   -3.9946    6.5047  -19.6810 C   0  0  0  0  0  0  0  0  0  0  0  0
   -3.8875    5.2015  -18.9282 C   0  0  0  0  0  0  0  0  0  0  0  0
   -4.2830    5.3278  -17.5376 N   0  0  0  0  0  0  0  0  0  0  0  0
   -3.3666    5.6304  -16.5872 N   0  0  0  0  0  0  0  0  0  0  0  0
   -4.0762    5.6414  -15.4491 C   0  0  0  0  0  0  0  0  0  0  0  0
   -3.4031    5.9680  -14.1665 C   0  0  0  0  0  0  0  0  0  0  0  0
   -5.4377    5.3074  -15.6695 C   0  0  0  0  0  0  0  0  0  0  0  0
   -6.6104    5.1594  -14.9264 C   0  0  0  0  0  0  0  0  0  0  0  0
   -6.6485    5.5168  -13.4894 C   0  0  0  0  0  0  0  0  0  0  0  0
   -6.3700    6.6127  -13.1920 O   0  0  0  0  0  0  0  0  0  0  0  0
   -7.1694    4.3405  -12.6212 N   0  0  0  0  0  0  0  0  0  0  0  0
   -7.5322    4.2997  -11.2743 C   0  0  0  0  0  0  0  0  0  0  0  0
   -7.5132    5.4618  -10.4812 C   0  0  0  0  0  0  0  0  0  0  0  0
   -7.9103    5.4219   -9.1407 C   0  0  0  0  0  0  0  0  0  0  0  0
   -8.3074    4.2025   -8.6301 C   0  0  0  0  0  0  0  0  0  0  0  0
   -8.3380    3.0428   -9.3986 C   0  0  0  0  0  0  0  0  0  0  0  0
   -7.9672    3.0790  -10.7346 C   0  0  0  0  0  0  0  0  0  0  0  0
   -8.7425    1.8870   -8.5461 C   0  0  0  0  0  0  0  0  0  0  0  0
   -9.0170    2.5097   -7.2658 N   0  0  0  0  0  0  0  0  0  0  0  0
   -8.6878    3.8489   -7.2576 C   0  0  0  0  0  0  0  0  0  0  0  0
   -8.6688    4.6002   -6.3010 O   0  0  0  0  0  0  0  0  0  0  0  0
   -7.7809    4.8097  -15.6144 C   0  0  0  0  0  0  0  0  0  0  0  0
   -9.2533    4.8083  -14.7422 Cl  0  0  0  0  0  0  0  0  0  0  0  0
   -7.7383    4.5584  -16.9932 C   0  0  0  0  0  0  0  0  0  0  0  0
   -8.9416    4.0693  -17.7611 C   0  0  0  0  0  0  0  0  0  0  0  0
   -6.6161    4.7090  -17.7362 N   0  0  0  0  0  0  0  0  0  0  0  0
   -5.5310    5.0868  -17.0351 C   0  0  0  0  0  0  0  0  0  0  0  0
   -4.9959    6.6849  -20.6442 C   0  0  0  0  0  0  0  0  0  0  0  0
   -5.0681    7.8686  -21.3818 C   0  0  0  0  0  0  0  0  0  0  0  0
  1  2  1  0
  2  3  2  0
  3  4  1  0
  4  5  2  0
  5  6  1  0
  6  7  1  0
  7  8  1  0
  8  9  2  0
  9 10  1  0
  9 11  1  0
 11 12  2  0
 12 13  1  0
 13 14  2  0
 13 15  1  0
 15 16  1  0
 16 17  2  0
 17 18  1  0
 18 19  2  0
 19 20  1  0
 20 21  2  0
 20 22  1  0
 22 23  1  0
 23 24  1  0
 24 25  2  0
 12 26  1  0
 26 27  1  0
 26 28  2  0
 28 29  1  0
 28 30  1  0
 30 31  2  0
  5 32  1  0
 32 33  2  0
 33  2  1  0
 31  7  1  0
 31 11  1  0
 21 16  1  0
 24 19  1  0
M  END
>  <name>  (358) 
P116262

>  <alias>  (358) 
None

>  <smina_score_min>  (358) 
-8.153

>  <exports>  (358) 
['/opt/xchem-fragalysis-2/maxwin/BulkDock/OUTPUTS/openbind_xx01zvns2b_c2_elabs_1LOUTNY.sdf', '/opt/xchem-fragalysis-2/maxwin/BulkDock/OUTPUTS/openbind_xx01zvns2b_c2_elabs_1LSYIIV.sdf']

>  <tags>  (358) 
syndirella_placed,openbind_xx01zvns2b_c2_elabs,openbind_xx01zvns2b_c2_elabs_scored_6.2plus,syndirella_product,openbind_xx01zvns2b_c2_elabs_scored,openbind_xx01zvns2b_c2_elabs_scored_top80percent,BulkDock Fragalysis export

>  <subsites>  (358) 
1 - Z4590/B/203/1

>  <smiles>  (358) 
Cc1ccc(Cn2nc(C)c3c(C(=O)Nc4ccc5c(c4)CNC5=O)c(Cl)c(C)nc32)cc1

>  <HIPPO Pose ID>  (358) 
116262

>  <energy_score>  (358) 
-44.983862

>  <inchikey>  (358) 
KZBBRDSNPNMRNU-UHFFFAOYSA-N

>  <gnina_score_min>  (358) 
6.628

>  <gnina_score>  (358) 
6.484

>  <ref_mols>  (358) 
Z3556a

>  <HIPPO Compound ID>  (358) 
179551

>  <distance_score>  (358) 
0.654779

>  <rmsd(smina/fragmenstein)>  (358) 
1.314

>  <ref_pdb>  (358) 
Z3556a

>  <inspiration_score>  (358) 
None

$$$$
P116263
     RDKit          3D

 33 37  0  0  0  0  0  0  0  0999 V2000
   -4.2084   10.2415  -21.7539 C   0  0  0  0  0  0  0  0  0  0  0  0
   -4.1423    8.9355  -21.0210 C   0  0  0  0  0  0  0  0  0  0  0  0
   -5.0510    7.9120  -21.3083 C   0  0  0  0  0  0  0  0  0  0  0  0
   -5.0092    6.7068  -20.6037 C   0  0  0  0  0  0  0  0  0  0  0  0
   -4.0496    6.4978  -19.6043 C   0  0  0  0  0  0  0  0  0  0  0  0
   -3.9723    5.1699  -18.8917 C   0  0  0  0  0  0  0  0  0  0  0  0
   -4.3342    5.2643  -17.4881 N   0  0  0  0  0  0  0  0  0  0  0  0
   -3.3900    5.5111  -16.5490 N   0  0  0  0  0  0  0  0  0  0  0  0
   -4.0747    5.5028  -15.3954 C   0  0  0  0  0  0  0  0  0  0  0  0
   -3.3569    5.7631  -14.1217 C   0  0  0  0  0  0  0  0  0  0  0  0
   -5.4524    5.2141  -15.5936 C   0  0  0  0  0  0  0  0  0  0  0  0
   -6.6184    5.0795  -14.8276 C   0  0  0  0  0  0  0  0  0  0  0  0
   -6.6027    5.4224  -13.3820 C   0  0  0  0  0  0  0  0  0  0  0  0
   -6.1782    6.4756  -13.0965 O   0  0  0  0  0  0  0  0  0  0  0  0
   -7.2556    4.3237  -12.4936 N   0  0  0  0  0  0  0  0  0  0  0  0
   -7.5940    4.3357  -11.1362 C   0  0  0  0  0  0  0  0  0  0  0  0
   -7.3178    5.4741  -10.3555 C   0  0  0  0  0  0  0  0  0  0  0  0
   -7.6175    5.5146   -8.9901 C   0  0  0  0  0  0  0  0  0  0  0  0
   -8.1957    4.4001   -8.4187 C   0  0  0  0  0  0  0  0  0  0  0  0
   -8.5125    3.2898   -9.2006 C   0  0  0  0  0  0  0  0  0  0  0  0
   -8.2252    3.2257  -10.5578 C   0  0  0  0  0  0  0  0  0  0  0  0
   -9.1212    2.2988   -8.2988 C   0  0  0  0  0  0  0  0  0  0  0  0
   -9.5342    1.1976   -8.5840 O   0  0  0  0  0  0  0  0  0  0  0  0
   -9.1646    2.8555   -7.0349 N   0  0  0  0  0  0  0  0  0  0  0  0
   -8.5273    4.1401   -6.9900 C   0  0  0  0  0  0  0  0  0  0  0  0
   -7.8092    4.7864  -15.5089 C   0  0  0  0  0  0  0  0  0  0  0  0
   -9.2772    4.8603  -14.6291 Cl  0  0  0  0  0  0  0  0  0  0  0  0
   -7.7900    4.5530  -16.8934 C   0  0  0  0  0  0  0  0  0  0  0  0
   -9.0033    4.0896  -17.6593 C   0  0  0  0  0  0  0  0  0  0  0  0
   -6.6775    4.6917  -17.6498 N   0  0  0  0  0  0  0  0  0  0  0  0
   -5.5745    5.0334  -16.9627 C   0  0  0  0  0  0  0  0  0  0  0  0
   -3.1487    7.5295  -19.3087 C   0  0  0  0  0  0  0  0  0  0  0  0
   -3.2017    8.7405  -20.0035 C   0  0  0  0  0  0  0  0  0  0  0  0
  1  2  1  0
  2  3  2  0
  3  4  1  0
  4  5  2  0
  5  6  1  0
  6  7  1  0
  7  8  1  0
  8  9  2  0
  9 10  1  0
  9 11  1  0
 11 12  2  0
 12 13  1  0
 13 14  2  0
 13 15  1  0
 15 16  1  0
 16 17  2  0
 17 18  1  0
 18 19  2  0
 19 20  1  0
 20 21  2  0
 20 22  1  0
 22 23  2  0
 22 24  1  0
 24 25  1  0
 12 26  1  0
 26 27  1  0
 26 28  2  0
 28 29  1  0
 28 30  1  0
 30 31  2  0
  5 32  1  0
 32 33  2  0
 33  2  1  0
 31  7  1  0
 31 11  1  0
 21 16  1  0
 25 19  1  0
M  END
>  <name>  (359) 
P116263

>  <alias>  (359) 
None

>  <smina_score_min>  (359) 
-8.088

>  <exports>  (359) 
['/opt/xchem-fragalysis-2/maxwin/BulkDock/OUTPUTS/openbind_xx01zvns2b_c2_elabs_1LOUTNY.sdf', '/opt/xchem-fragalysis-2/maxwin/BulkDock/OUTPUTS/openbind_xx01zvns2b_c2_elabs_1LSYIIV.sdf']

>  <tags>  (359) 
syndirella_placed,openbind_xx01zvns2b_c2_elabs,openbind_xx01zvns2b_c2_elabs_scored_6.2plus,syndirella_product,openbind_xx01zvns2b_c2_elabs_scored,openbind_xx01zvns2b_c2_elabs_scored_top80percent,BulkDock Fragalysis export

>  <subsites>  (359) 
1 - Z4590/B/203/1

>  <smiles>  (359) 
Cc1ccc(Cn2nc(C)c3c(C(=O)Nc4ccc5c(c4)C(=O)NC5)c(Cl)c(C)nc32)cc1

>  <HIPPO Pose ID>  (359) 
116263

>  <energy_score>  (359) 
-22.662419

>  <inchikey>  (359) 
QWWMRTLOTWHMTM-UHFFFAOYSA-N

>  <gnina_score_min>  (359) 
6.583

>  <gnina_score>  (359) 
6.39

>  <ref_mols>  (359) 
Z3556a

>  <HIPPO Compound ID>  (359) 
179552

>  <distance_score>  (359) 
0.700612

>  <rmsd(smina/fragmenstein)>  (359) 
1.83

>  <ref_pdb>  (359) 
Z3556a

>  <inspiration_score>  (359) 
None

$$$$
P116268
     RDKit          3D

 33 38  0  0  0  0  0  0  0  0999 V2000
   -9.3066    3.8927  -18.1626 C   0  0  0  0  0  0  0  0  0  0  0  0
   -8.1484    4.3476  -17.3219 C   0  0  0  0  0  0  0  0  0  0  0  0
   -8.3062    4.5313  -15.9530 C   0  0  0  0  0  0  0  0  0  0  0  0
   -7.2227    4.9979  -15.2075 C   0  0  0  0  0  0  0  0  0  0  0  0
   -7.4112    5.4587  -13.8213 C   0  0  0  0  0  0  0  0  0  0  0  0
   -7.2346    6.5934  -13.6076 O   0  0  0  0  0  0  0  0  0  0  0  0
   -7.8506    4.3179  -12.8762 N   0  0  0  0  0  0  0  0  0  0  0  0
   -8.0658    4.3153  -11.4961 C   0  0  0  0  0  0  0  0  0  0  0  0
   -8.0264    5.5161  -10.7667 C   0  0  0  0  0  0  0  0  0  0  0  0
   -8.2300    5.5271   -9.3837 C   0  0  0  0  0  0  0  0  0  0  0  0
   -8.4759    4.3244   -8.7489 C   0  0  0  0  0  0  0  0  0  0  0  0
   -8.5196    3.1323   -9.4636 C   0  0  0  0  0  0  0  0  0  0  0  0
   -8.3170    3.1071  -10.8384 C   0  0  0  0  0  0  0  0  0  0  0  0
   -8.7971    1.9993   -8.5252 C   0  0  0  0  0  0  0  0  0  0  0  0
   -8.9131    2.6088   -7.1785 N   0  0  0  0  0  0  0  0  0  0  0  0
  -10.1205    2.2213   -6.4781 C   0  0  0  0  0  0  0  0  0  0  0  0
   -8.7304    4.0608   -7.3017 C   0  0  0  0  0  0  0  0  0  0  0  0
   -5.9905    5.1839  -15.8488 C   0  0  0  0  0  0  0  0  0  0  0  0
   -4.6680    5.5350  -15.5226 C   0  0  0  0  0  0  0  0  0  0  0  0
   -4.1699    5.8424  -14.0827 C   0  0  0  0  0  0  0  0  0  0  0  0
   -2.8362    5.3097  -13.6252 C   0  0  0  0  0  0  0  0  0  0  0  0
   -4.1018    4.7203  -13.0768 C   0  0  0  0  0  0  0  0  0  0  0  0
   -3.8468    5.5420  -16.5743 N   0  0  0  0  0  0  0  0  0  0  0  0
   -4.6577    5.2461  -17.6335 N   0  0  0  0  0  0  0  0  0  0  0  0
   -4.1312    5.2497  -18.9607 C   0  0  0  0  0  0  0  0  0  0  0  0
   -4.9750    5.2324  -20.0826 C   0  0  0  0  0  0  0  0  0  0  0  0
   -4.4354    5.2209  -21.3708 C   0  0  0  0  0  0  0  0  0  0  0  0
   -3.0574    5.2100  -21.5401 C   0  0  0  0  0  0  0  0  0  0  0  0
   -2.5487    5.1670  -22.7789 F   0  0  0  0  0  0  0  0  0  0  0  0
   -2.2055    5.2392  -20.4432 C   0  0  0  0  0  0  0  0  0  0  0  0
   -2.7390    5.2721  -19.1514 C   0  0  0  0  0  0  0  0  0  0  0  0
   -5.9572    4.9745  -17.2186 C   0  0  0  0  0  0  0  0  0  0  0  0
   -6.9947    4.5715  -17.9807 N   0  0  0  0  0  0  0  0  0  0  0  0
  1  2  1  0
  2  3  2  0
  3  4  1  0
  4  5  1  0
  5  6  2  0
  5  7  1  0
  7  8  1  0
  8  9  2  0
  9 10  1  0
 10 11  2  0
 11 12  1  0
 12 13  2  0
 12 14  1  0
 14 15  1  0
 15 16  1  0
 15 17  1  0
  4 18  2  0
 18 19  1  0
 19 20  1  0
 20 21  1  0
 21 22  1  0
 19 23  2  0
 23 24  1  0
 24 25  1  0
 25 26  2  0
 26 27  1  0
 27 28  2  0
 28 29  1  0
 28 30  1  0
 30 31  2  0
 24 32  1  0
 32 33  2  0
 33  2  1  0
 13  8  1  0
 32 18  1  0
 17 11  1  0
 22 20  1  0
 31 25  1  0
M  END
>  <name>  (360) 
P116268

>  <alias>  (360) 
None

>  <smina_score_min>  (360) 
-9.646

>  <exports>  (360) 
['/opt/xchem-fragalysis-2/maxwin/BulkDock/OUTPUTS/openbind_xx01zvns2b_c2_elabs_1LOUTNY.sdf', '/opt/xchem-fragalysis-2/maxwin/BulkDock/OUTPUTS/openbind_xx01zvns2b_c2_elabs_1LSYIIV.sdf']

>  <tags>  (360) 
syndirella_placed,openbind_xx01zvns2b_c2_elabs,openbind_xx01zvns2b_c2_elabs_scored_6.2plus,syndirella_product,openbind_xx01zvns2b_c2_elabs_scored,openbind_xx01zvns2b_c2_elabs_scored_top80percent,BulkDock Fragalysis export

>  <subsites>  (360) 
1 - Z4590/B/203/1

>  <smiles>  (360) 
Cc1cc(C(=O)Nc2ccc3c(c2)CN(C)C3)c2c(C3CC3)nn(-c3ccc(F)cc3)c2n1

>  <HIPPO Pose ID>  (360) 
116268

>  <energy_score>  (360) 
-66.488559

>  <inchikey>  (360) 
FHYNWSQOLUEWIT-UHFFFAOYSA-N

>  <gnina_score_min>  (360) 
6.612

>  <gnina_score>  (360) 
6.603

>  <ref_mols>  (360) 
Z3556a

>  <HIPPO Compound ID>  (360) 
179557

>  <distance_score>  (360) 
0.365726

>  <rmsd(smina/fragmenstein)>  (360) 
0.416

>  <ref_pdb>  (360) 
Z3556a

>  <inspiration_score>  (360) 
None

$$$$
P116269
     RDKit          3D

 33 38  0  0  0  0  0  0  0  0999 V2000
   -9.3107    3.9006  -18.1660 C   0  0  0  0  0  0  0  0  0  0  0  0
   -8.1542    4.3545  -17.3222 C   0  0  0  0  0  0  0  0  0  0  0  0
   -8.3142    4.5381  -15.9543 C   0  0  0  0  0  0  0  0  0  0  0  0
   -7.2319    5.0022  -15.2039 C   0  0  0  0  0  0  0  0  0  0  0  0
   -7.4338    5.4431  -13.8126 C   0  0  0  0  0  0  0  0  0  0  0  0
   -7.2869    6.5779  -13.5812 O   0  0  0  0  0  0  0  0  0  0  0  0
   -7.8487    4.2778  -12.8871 N   0  0  0  0  0  0  0  0  0  0  0  0
   -8.0703    4.2491  -11.5080 C   0  0  0  0  0  0  0  0  0  0  0  0
   -8.0469    5.4383  -10.7521 C   0  0  0  0  0  0  0  0  0  0  0  0
   -8.2425    5.4167   -9.3675 C   0  0  0  0  0  0  0  0  0  0  0  0
   -8.4693    4.1901   -8.7778 C   0  0  0  0  0  0  0  0  0  0  0  0
   -8.5042    3.0040   -9.5059 C   0  0  0  0  0  0  0  0  0  0  0  0
   -8.3044    3.0182  -10.8795 C   0  0  0  0  0  0  0  0  0  0  0  0
   -8.7276    1.8554   -8.5790 C   0  0  0  0  0  0  0  0  0  0  0  0
   -8.9150    2.5066   -7.2977 N   0  0  0  0  0  0  0  0  0  0  0  0
   -8.6702    3.8617   -7.3617 C   0  0  0  0  0  0  0  0  0  0  0  0
   -8.5944    4.6452   -6.4344 O   0  0  0  0  0  0  0  0  0  0  0  0
   -5.9962    5.1876  -15.8404 C   0  0  0  0  0  0  0  0  0  0  0  0
   -4.6697    5.5299  -15.5145 C   0  0  0  0  0  0  0  0  0  0  0  0
   -4.1603    5.8109  -14.0710 C   0  0  0  0  0  0  0  0  0  0  0  0
   -4.1950    7.2254  -13.5526 C   0  0  0  0  0  0  0  0  0  0  0  0
   -2.8783    6.5771  -13.8596 C   0  0  0  0  0  0  0  0  0  0  0  0
   -3.8475    5.5160  -16.5660 N   0  0  0  0  0  0  0  0  0  0  0  0
   -4.6616    5.2414  -17.6262 N   0  0  0  0  0  0  0  0  0  0  0  0
   -4.1359    5.2471  -18.9538 C   0  0  0  0  0  0  0  0  0  0  0  0
   -4.9804    5.2416  -20.0753 C   0  0  0  0  0  0  0  0  0  0  0  0
   -4.4417    5.2302  -21.3639 C   0  0  0  0  0  0  0  0  0  0  0  0
   -3.0639    5.2092  -21.5340 C   0  0  0  0  0  0  0  0  0  0  0  0
   -2.5564    5.1658  -22.7733 F   0  0  0  0  0  0  0  0  0  0  0  0
   -2.2112    5.2279  -20.4376 C   0  0  0  0  0  0  0  0  0  0  0  0
   -2.7437    5.2594  -19.1453 C   0  0  0  0  0  0  0  0  0  0  0  0
   -5.9622    4.9774  -17.2113 C   0  0  0  0  0  0  0  0  0  0  0  0
   -6.9984    4.5757  -17.9760 N   0  0  0  0  0  0  0  0  0  0  0  0
  1  2  1  0
  2  3  2  0
  3  4  1  0
  4  5  1  0
  5  6  2  0
  5  7  1  0
  7  8  1  0
  8  9  2  0
  9 10  1  0
 10 11  2  0
 11 12  1  0
 12 13  2  0
 12 14  1  0
 14 15  1  0
 15 16  1  0
 16 17  2  0
  4 18  2  0
 18 19  1  0
 19 20  1  0
 20 21  1  0
 21 22  1  0
 19 23  2  0
 23 24  1  0
 24 25  1  0
 25 26  2  0
 26 27  1  0
 27 28  2  0
 28 29  1  0
 28 30  1  0
 30 31  2  0
 24 32  1  0
 32 33  2  0
 33  2  1  0
 13  8  1  0
 32 18  1  0
 16 11  1  0
 22 20  1  0
 31 25  1  0
M  END
>  <name>  (361) 
P116269

>  <alias>  (361) 
None

>  <smina_score_min>  (361) 
-9.522

>  <exports>  (361) 
['/opt/xchem-fragalysis-2/maxwin/BulkDock/OUTPUTS/openbind_xx01zvns2b_c2_elabs_1LOUTNY.sdf', '/opt/xchem-fragalysis-2/maxwin/BulkDock/OUTPUTS/openbind_xx01zvns2b_c2_elabs_1LSYIIV.sdf']

>  <tags>  (361) 
syndirella_placed,openbind_xx01zvns2b_c2_elabs,openbind_xx01zvns2b_c2_elabs_scored_6.2plus,syndirella_product,openbind_xx01zvns2b_c2_elabs_scored,openbind_xx01zvns2b_c2_elabs_scored_top80percent,BulkDock Fragalysis export

>  <subsites>  (361) 
1 - Z4590/B/203/1

>  <smiles>  (361) 
Cc1cc(C(=O)Nc2ccc3c(c2)CNC3=O)c2c(C3CC3)nn(-c3ccc(F)cc3)c2n1

>  <HIPPO Pose ID>  (361) 
116269

>  <energy_score>  (361) 
-39.870839

>  <inchikey>  (361) 
VRDOOWFHPZIVJJ-UHFFFAOYSA-N

>  <gnina_score_min>  (361) 
6.487

>  <gnina_score>  (361) 
6.547

>  <ref_mols>  (361) 
Z3556a

>  <HIPPO Compound ID>  (361) 
179558

>  <distance_score>  (361) 
0.347312

>  <rmsd(smina/fragmenstein)>  (361) 
0.627

>  <ref_pdb>  (361) 
Z3556a

>  <inspiration_score>  (361) 
None

$$$$
P116270
     RDKit          3D

 33 38  0  0  0  0  0  0  0  0999 V2000
   -9.3492    3.8687  -18.0850 C   0  0  0  0  0  0  0  0  0  0  0  0
   -8.2009    4.3119  -17.2251 C   0  0  0  0  0  0  0  0  0  0  0  0
   -8.3577    4.4570  -15.8495 C   0  0  0  0  0  0  0  0  0  0  0  0
   -7.2770    4.9097  -15.0907 C   0  0  0  0  0  0  0  0  0  0  0  0
   -7.4581    5.3665  -13.6984 C   0  0  0  0  0  0  0  0  0  0  0  0
   -7.2406    6.4986  -13.5005 O   0  0  0  0  0  0  0  0  0  0  0  0
   -7.9203    4.2480  -12.7297 N   0  0  0  0  0  0  0  0  0  0  0  0
   -8.1127    4.2683  -11.3425 C   0  0  0  0  0  0  0  0  0  0  0  0
   -7.8205    5.4456  -10.6219 C   0  0  0  0  0  0  0  0  0  0  0  0
   -7.9282    5.5023   -9.2281 C   0  0  0  0  0  0  0  0  0  0  0  0
   -8.3495    4.3693   -8.5651 C   0  0  0  0  0  0  0  0  0  0  0  0
   -8.6852    3.2191   -9.2793 C   0  0  0  0  0  0  0  0  0  0  0  0
   -8.5607    3.1308  -10.6615 C   0  0  0  0  0  0  0  0  0  0  0  0
   -9.1515    2.2318   -8.2911 C   0  0  0  0  0  0  0  0  0  0  0  0
   -9.5629    1.1134   -8.5031 O   0  0  0  0  0  0  0  0  0  0  0  0
   -9.0836    2.8248   -7.0455 N   0  0  0  0  0  0  0  0  0  0  0  0
   -8.5014    4.1345   -7.1016 C   0  0  0  0  0  0  0  0  0  0  0  0
   -6.0467    5.1227  -15.7360 C   0  0  0  0  0  0  0  0  0  0  0  0
   -4.7248    5.4805  -15.4087 C   0  0  0  0  0  0  0  0  0  0  0  0
   -4.2188    5.7586  -13.9653 C   0  0  0  0  0  0  0  0  0  0  0  0
   -2.8865    5.2076  -13.5250 C   0  0  0  0  0  0  0  0  0  0  0  0
   -4.1534    4.6194  -12.9786 C   0  0  0  0  0  0  0  0  0  0  0  0
   -3.9075    5.5197  -16.4628 N   0  0  0  0  0  0  0  0  0  0  0  0
   -4.7166    5.2322  -17.5249 N   0  0  0  0  0  0  0  0  0  0  0  0
   -4.1874    5.2428  -18.8518 C   0  0  0  0  0  0  0  0  0  0  0  0
   -2.7945    5.2704  -19.0389 C   0  0  0  0  0  0  0  0  0  0  0  0
   -2.2566    5.2344  -20.3290 C   0  0  0  0  0  0  0  0  0  0  0  0
   -3.1052    5.1984  -21.4284 C   0  0  0  0  0  0  0  0  0  0  0  0
   -2.5927    5.1500  -22.6653 F   0  0  0  0  0  0  0  0  0  0  0  0
   -4.4838    5.2056  -21.2633 C   0  0  0  0  0  0  0  0  0  0  0  0
   -5.0274    5.2199  -19.9764 C   0  0  0  0  0  0  0  0  0  0  0  0
   -6.0146    4.9495  -17.1113 C   0  0  0  0  0  0  0  0  0  0  0  0
   -7.0516    4.5615  -17.8799 N   0  0  0  0  0  0  0  0  0  0  0  0
  1  2  1  0
  2  3  2  0
  3  4  1  0
  4  5  1  0
  5  6  2  0
  5  7  1  0
  7  8  1  0
  8  9  2  0
  9 10  1  0
 10 11  2  0
 11 12  1  0
 12 13  2  0
 12 14  1  0
 14 15  2  0
 14 16  1  0
 16 17  1  0
  4 18  2  0
 18 19  1  0
 19 20  1  0
 20 21  1  0
 21 22  1  0
 19 23  2  0
 23 24  1  0
 24 25  1  0
 25 26  2  0
 26 27  1  0
 27 28  2  0
 28 29  1  0
 28 30  1  0
 30 31  2  0
 24 32  1  0
 32 33  2  0
 33  2  1  0
 13  8  1  0
 32 18  1  0
 17 11  1  0
 22 20  1  0
 31 25  1  0
M  END
>  <name>  (362) 
P116270

>  <alias>  (362) 
None

>  <smina_score_min>  (362) 
-9.434

>  <exports>  (362) 
['/opt/xchem-fragalysis-2/maxwin/BulkDock/OUTPUTS/openbind_xx01zvns2b_c2_elabs_1LOUTNY.sdf', '/opt/xchem-fragalysis-2/maxwin/BulkDock/OUTPUTS/openbind_xx01zvns2b_c2_elabs_1LSYIIV.sdf']

>  <tags>  (362) 
syndirella_placed,openbind_xx01zvns2b_c2_elabs,openbind_xx01zvns2b_c2_elabs_scored_6.2plus,syndirella_product,openbind_xx01zvns2b_c2_elabs_scored,openbind_xx01zvns2b_c2_elabs_scored_top80percent,BulkDock Fragalysis export

>  <subsites>  (362) 
1 - Z4590/B/203/1

>  <smiles>  (362) 
Cc1cc(C(=O)Nc2ccc3c(c2)C(=O)NC3)c2c(C3CC3)nn(-c3ccc(F)cc3)c2n1

>  <HIPPO Pose ID>  (362) 
116270

>  <energy_score>  (362) 
-55.66366

>  <inchikey>  (362) 
XHJLLHJBRSKAFI-UHFFFAOYSA-N

>  <gnina_score_min>  (362) 
6.457

>  <gnina_score>  (362) 
6.543

>  <ref_mols>  (362) 
Z3556a

>  <HIPPO Compound ID>  (362) 
179559

>  <distance_score>  (362) 
0.383912

>  <rmsd(smina/fragmenstein)>  (362) 
0.539

>  <ref_pdb>  (362) 
Z3556a

>  <inspiration_score>  (362) 
None

$$$$
P116272
     RDKit          3D

 33 38  0  0  0  0  0  0  0  0999 V2000
  -10.7485    2.3736   -5.5300 C   0  0  0  0  0  0  0  0  0  0  0  0
   -9.7875    1.7982   -6.5543 C   0  0  0  0  0  0  0  0  0  0  0  0
   -9.6262    2.7043   -7.6716 N   0  0  0  0  0  0  0  0  0  0  0  0
   -8.8561    3.9263   -7.3687 C   0  0  0  0  0  0  0  0  0  0  0  0
   -8.3119    4.3205   -8.7050 C   0  0  0  0  0  0  0  0  0  0  0  0
   -7.8281    5.5326   -9.1530 C   0  0  0  0  0  0  0  0  0  0  0  0
   -7.4027    5.6151  -10.4820 C   0  0  0  0  0  0  0  0  0  0  0  0
   -7.4662    4.4934  -11.3235 C   0  0  0  0  0  0  0  0  0  0  0  0
   -7.1345    4.5630  -12.6659 N   0  0  0  0  0  0  0  0  0  0  0  0
   -6.5341    5.7207  -13.4917 C   0  0  0  0  0  0  0  0  0  0  0  0
   -6.1532    6.7707  -13.1561 O   0  0  0  0  0  0  0  0  0  0  0  0
   -6.5812    5.3770  -14.9184 C   0  0  0  0  0  0  0  0  0  0  0  0
   -7.7702    4.8950  -15.4638 C   0  0  0  0  0  0  0  0  0  0  0  0
   -7.8383    4.5606  -16.8117 C   0  0  0  0  0  0  0  0  0  0  0  0
   -9.1100    3.9400  -17.2979 C   0  0  0  0  0  0  0  0  0  0  0  0
   -9.1196    3.0769  -18.5194 C   0  0  0  0  0  0  0  0  0  0  0  0
   -9.8087    4.4038  -18.5356 C   0  0  0  0  0  0  0  0  0  0  0  0
   -6.8007    4.7428  -17.6591 N   0  0  0  0  0  0  0  0  0  0  0  0
   -5.6793    5.2128  -17.0891 C   0  0  0  0  0  0  0  0  0  0  0  0
   -5.4880    5.5399  -15.7590 C   0  0  0  0  0  0  0  0  0  0  0  0
   -4.1435    5.9456  -15.6799 C   0  0  0  0  0  0  0  0  0  0  0  0
   -3.5118    5.8776  -16.8592 N   0  0  0  0  0  0  0  0  0  0  0  0
   -4.4852    5.4525  -17.7096 N   0  0  0  0  0  0  0  0  0  0  0  0
   -4.2019    5.2268  -19.1154 C   0  0  0  0  0  0  0  0  0  0  0  0
   -4.3798    6.4552  -19.9318 C   0  0  0  0  0  0  0  0  0  0  0  0
   -4.2025    7.8060  -19.7065 C   0  0  0  0  0  0  0  0  0  0  0  0
   -4.5424    8.4645  -20.9133 C   0  0  0  0  0  0  0  0  0  0  0  0
   -4.9004    7.4780  -21.8059 C   0  0  0  0  0  0  0  0  0  0  0  0
   -5.3545    7.4940  -23.2108 C   0  0  0  0  0  0  0  0  0  0  0  0
   -4.7855    6.2548  -21.2212 O   0  0  0  0  0  0  0  0  0  0  0  0
   -7.9457    3.2704  -10.8560 C   0  0  0  0  0  0  0  0  0  0  0  0
   -8.3628    3.2083   -9.5462 C   0  0  0  0  0  0  0  0  0  0  0  0
   -8.9310    2.0528   -8.7974 C   0  0  0  0  0  0  0  0  0  0  0  0
  1  2  1  0
  2  3  1  0
  3  4  1  0
  4  5  1  0
  5  6  2  0
  6  7  1  0
  7  8  2  0
  8  9  1  0
  9 10  1  0
 10 11  2  0
 10 12  1  0
 12 13  2  0
 13 14  1  0
 14 15  1  0
 15 16  1  0
 16 17  1  0
 14 18  2  0
 18 19  1  0
 19 20  2  0
 20 21  1  0
 21 22  2  0
 22 23  1  0
 23 24  1  0
 24 25  1  0
 25 26  2  0
 26 27  1  0
 27 28  2  0
 28 29  1  0
 28 30  1  0
  8 31  1  0
 31 32  2  0
 32 33  1  0
 33  3  1  0
 32  5  1  0
 20 12  1  0
 30 25  1  0
 17 15  1  0
 23 19  1  0
M  END
>  <name>  (363) 
P116272

>  <alias>  (363) 
None

>  <smina_score_min>  (363) 
-8.144

>  <exports>  (363) 
['/opt/xchem-fragalysis-2/maxwin/BulkDock/OUTPUTS/openbind_xx01zvns2b_c2_elabs_1LOUTNY.sdf', '/opt/xchem-fragalysis-2/maxwin/BulkDock/OUTPUTS/openbind_xx01zvns2b_c2_elabs_1LSYIIV.sdf']

>  <tags>  (363) 
syndirella_placed,openbind_xx01zvns2b_c2_elabs,openbind_xx01zvns2b_c2_elabs_scored_6.2plus,syndirella_product,openbind_xx01zvns2b_c2_elabs_scored,openbind_xx01zvns2b_c2_elabs_scored_top80percent,BulkDock Fragalysis export

>  <subsites>  (363) 
1 - Z4590/B/203/1

>  <smiles>  (363) 
CCN1Cc2ccc(NC(=O)c3cc(C4CC4)nc4c3cnn4Cc3ccc(C)o3)cc2C1

>  <HIPPO Pose ID>  (363) 
116272

>  <energy_score>  (363) 
-31.13923

>  <inchikey>  (363) 
AFYXTQASKWWMAS-UHFFFAOYSA-N

>  <gnina_score_min>  (363) 
6.409

>  <gnina_score>  (363) 
6.267

>  <ref_mols>  (363) 
Z3556a

>  <HIPPO Compound ID>  (363) 
179561

>  <distance_score>  (363) 
0.784988

>  <rmsd(smina/fragmenstein)>  (363) 
0.558

>  <ref_pdb>  (363) 
Z3556a

>  <inspiration_score>  (363) 
None

$$$$
P116283
     RDKit          3D

 33 37  0  0  0  0  0  0  0  0999 V2000
  -10.4281    2.9406   -5.2454 C   0  0  0  0  0  0  0  0  0  0  0  0
  -10.1836    2.3014   -6.6048 C   0  0  0  0  0  0  0  0  0  0  0  0
   -8.9237    2.6883   -7.2220 N   0  0  0  0  0  0  0  0  0  0  0  0
   -8.6995    4.1324   -7.3625 C   0  0  0  0  0  0  0  0  0  0  0  0
   -8.4451    4.3778   -8.8093 C   0  0  0  0  0  0  0  0  0  0  0  0
   -8.2195    5.5803   -9.4492 C   0  0  0  0  0  0  0  0  0  0  0  0
   -8.0231    5.5610  -10.8294 C   0  0  0  0  0  0  0  0  0  0  0  0
   -8.0466    4.3527  -11.5476 C   0  0  0  0  0  0  0  0  0  0  0  0
   -7.8255    4.3557  -12.9237 N   0  0  0  0  0  0  0  0  0  0  0  0
   -7.5482    5.5251  -13.8919 C   0  0  0  0  0  0  0  0  0  0  0  0
   -7.5374    6.6773  -13.7038 O   0  0  0  0  0  0  0  0  0  0  0  0
   -7.2665    5.0608  -15.2551 C   0  0  0  0  0  0  0  0  0  0  0  0
   -8.2851    4.5482  -16.0578 C   0  0  0  0  0  0  0  0  0  0  0  0
   -8.0318    4.3460  -17.4123 C   0  0  0  0  0  0  0  0  0  0  0  0
   -9.1458    3.8771  -18.3054 C   0  0  0  0  0  0  0  0  0  0  0  0
   -6.8372    4.5772  -18.0059 N   0  0  0  0  0  0  0  0  0  0  0  0
   -5.8846    5.0370  -17.1737 C   0  0  0  0  0  0  0  0  0  0  0  0
   -6.0080    5.2957  -15.8205 C   0  0  0  0  0  0  0  0  0  0  0  0
   -4.7277    5.7641  -15.4208 C   0  0  0  0  0  0  0  0  0  0  0  0
   -4.2916    6.1891  -14.0670 C   0  0  0  0  0  0  0  0  0  0  0  0
   -3.8579    5.7866  -16.4433 N   0  0  0  0  0  0  0  0  0  0  0  0
   -4.5979    5.3645  -17.4994 N   0  0  0  0  0  0  0  0  0  0  0  0
   -3.9964    5.2425  -18.8139 C   0  0  0  0  0  0  0  0  0  0  0  0
   -4.1809    6.4880  -19.6468 C   0  0  0  0  0  0  0  0  0  0  0  0
   -3.4603    7.6584  -19.3655 C   0  0  0  0  0  0  0  0  0  0  0  0
   -3.6374    8.8035  -20.1461 C   0  0  0  0  0  0  0  0  0  0  0  0
   -4.5302    8.7805  -21.2154 C   0  0  0  0  0  0  0  0  0  0  0  0
   -4.7698   10.1945  -22.1665 Cl  0  0  0  0  0  0  0  0  0  0  0  0
   -5.2460    7.6241  -21.5110 C   0  0  0  0  0  0  0  0  0  0  0  0
   -5.0813    6.4854  -20.7220 C   0  0  0  0  0  0  0  0  0  0  0  0
   -8.2738    3.1437  -10.8830 C   0  0  0  0  0  0  0  0  0  0  0  0
   -8.4752    3.1778   -9.5097 C   0  0  0  0  0  0  0  0  0  0  0  0
   -8.7409    2.0544   -8.5567 C   0  0  0  0  0  0  0  0  0  0  0  0
  1  2  1  0
  2  3  1  0
  3  4  1  0
  4  5  1  0
  5  6  2  0
  6  7  1  0
  7  8  2  0
  8  9  1  0
  9 10  1  0
 10 11  2  0
 10 12  1  0
 12 13  2  0
 13 14  1  0
 14 15  1  0
 14 16  2  0
 16 17  1  0
 17 18  2  0
 18 19  1  0
 19 20  1  0
 19 21  2  0
 21 22  1  0
 22 23  1  0
 23 24  1  0
 24 25  2  0
 25 26  1  0
 26 27  2  0
 27 28  1  0
 27 29  1  0
 29 30  2  0
  8 31  1  0
 31 32  2  0
 32 33  1  0
 33  3  1  0
 32  5  1  0
 18 12  1  0
 30 24  1  0
 22 17  1  0
M  END
>  <name>  (364) 
P116283

>  <alias>  (364) 
None

>  <smina_score_min>  (364) 
-9.102

>  <exports>  (364) 
['/opt/xchem-fragalysis-2/maxwin/BulkDock/OUTPUTS/openbind_xx01zvns2b_c2_elabs_1LOUTNY.sdf', '/opt/xchem-fragalysis-2/maxwin/BulkDock/OUTPUTS/openbind_xx01zvns2b_c2_elabs_1LSYIIV.sdf']

>  <tags>  (364) 
syndirella_placed,openbind_xx01zvns2b_c2_elabs,openbind_xx01zvns2b_c2_elabs_scored_6.2plus,syndirella_product,openbind_xx01zvns2b_c2_elabs_scored,openbind_xx01zvns2b_c2_elabs_scored_top80percent,BulkDock Fragalysis export

>  <subsites>  (364) 
1 - Z4590/B/203/1

>  <smiles>  (364) 
CCN1Cc2ccc(NC(=O)c3cc(C)nc4c3c(C)nn4Cc3ccc(Cl)cc3)cc2C1

>  <HIPPO Pose ID>  (364) 
116283

>  <energy_score>  (364) 
-35.318458

>  <inchikey>  (364) 
MINVKPSSPNIKFE-UHFFFAOYSA-N

>  <gnina_score_min>  (364) 
6.553

>  <gnina_score>  (364) 
6.51

>  <ref_mols>  (364) 
Z3556a

>  <HIPPO Compound ID>  (364) 
179577

>  <distance_score>  (364) 
0.462191

>  <rmsd(smina/fragmenstein)>  (364) 
0.802

>  <ref_pdb>  (364) 
Z3556a

>  <inspiration_score>  (364) 
None

$$$$
P116284
     RDKit          3D

 33 37  0  0  0  0  0  0  0  0999 V2000
   -9.1875    3.8909  -18.1715 C   0  0  0  0  0  0  0  0  0  0  0  0
   -8.0548    4.3458  -17.2938 C   0  0  0  0  0  0  0  0  0  0  0  0
   -8.2716    4.5317  -15.9281 C   0  0  0  0  0  0  0  0  0  0  0  0
   -7.2289    5.0242  -15.1410 C   0  0  0  0  0  0  0  0  0  0  0  0
   -7.4643    5.4987  -13.7676 C   0  0  0  0  0  0  0  0  0  0  0  0
   -7.3369    6.6456  -13.5834 O   0  0  0  0  0  0  0  0  0  0  0  0
   -7.8398    4.3614  -12.7883 N   0  0  0  0  0  0  0  0  0  0  0  0
   -8.0371    4.3832  -11.4051 C   0  0  0  0  0  0  0  0  0  0  0  0
   -7.8258    5.5848  -10.6958 C   0  0  0  0  0  0  0  0  0  0  0  0
   -8.0024    5.6637   -9.3116 C   0  0  0  0  0  0  0  0  0  0  0  0
   -8.4078    4.5259   -8.6490 C   0  0  0  0  0  0  0  0  0  0  0  0
   -8.6246    3.3393   -9.3515 C   0  0  0  0  0  0  0  0  0  0  0  0
   -8.4387    3.2315  -10.7236 C   0  0  0  0  0  0  0  0  0  0  0  0
   -9.1625    2.3612   -8.3942 C   0  0  0  0  0  0  0  0  0  0  0  0
   -9.5673    1.2545   -8.6748 O   0  0  0  0  0  0  0  0  0  0  0  0
   -9.2156    2.9903   -7.1645 N   0  0  0  0  0  0  0  0  0  0  0  0
   -9.9211    2.4617   -6.0272 C   0  0  0  0  0  0  0  0  0  0  0  0
   -8.7293    4.3454   -7.2055 C   0  0  0  0  0  0  0  0  0  0  0  0
   -5.9835    5.2567  -15.7423 C   0  0  0  0  0  0  0  0  0  0  0  0
   -4.6877    5.7104  -15.3728 C   0  0  0  0  0  0  0  0  0  0  0  0
   -4.2038    6.1120  -14.0280 C   0  0  0  0  0  0  0  0  0  0  0  0
   -3.8470    5.7407  -16.4185 N   0  0  0  0  0  0  0  0  0  0  0  0
   -4.6170    5.3379  -17.4593 N   0  0  0  0  0  0  0  0  0  0  0  0
   -4.0477    5.2229  -18.7896 C   0  0  0  0  0  0  0  0  0  0  0  0
   -4.1989    6.4929  -19.5919 C   0  0  0  0  0  0  0  0  0  0  0  0
   -5.0745    6.5311  -20.6868 C   0  0  0  0  0  0  0  0  0  0  0  0
   -5.2002    7.6901  -21.4534 C   0  0  0  0  0  0  0  0  0  0  0  0
   -4.4700    8.8261  -21.1162 C   0  0  0  0  0  0  0  0  0  0  0  0
   -4.6599   10.2647  -22.0413 Cl  0  0  0  0  0  0  0  0  0  0  0  0
   -3.6011    8.8085  -20.0275 C   0  0  0  0  0  0  0  0  0  0  0  0
   -3.4622    7.6429  -19.2701 C   0  0  0  0  0  0  0  0  0  0  0  0
   -5.8974    5.0164  -17.1024 C   0  0  0  0  0  0  0  0  0  0  0  0
   -6.8746    4.5741  -17.9148 N   0  0  0  0  0  0  0  0  0  0  0  0
  1  2  1  0
  2  3  2  0
  3  4  1  0
  4  5  1  0
  5  6  2  0
  5  7  1  0
  7  8  1  0
  8  9  2  0
  9 10  1  0
 10 11  2  0
 11 12  1  0
 12 13  2  0
 12 14  1  0
 14 15  2  0
 14 16  1  0
 16 17  1  0
 16 18  1  0
  4 19  2  0
 19 20  1  0
 20 21  1  0
 20 22  2  0
 22 23  1  0
 23 24  1  0
 24 25  1  0
 25 26  2  0
 26 27  1  0
 27 28  2  0
 28 29  1  0
 28 30  1  0
 30 31  2  0
 23 32  1  0
 32 33  2  0
 33  2  1  0
 13  8  1  0
 32 19  1  0
 18 11  1  0
 31 25  1  0
M  END
>  <name>  (365) 
P116284

>  <alias>  (365) 
None

>  <smina_score_min>  (365) 
-8.838

>  <exports>  (365) 
['/opt/xchem-fragalysis-2/maxwin/BulkDock/OUTPUTS/openbind_xx01zvns2b_c2_elabs_1LOUTNY.sdf', '/opt/xchem-fragalysis-2/maxwin/BulkDock/OUTPUTS/openbind_xx01zvns2b_c2_elabs_1LSYIIV.sdf']

>  <tags>  (365) 
syndirella_placed,openbind_xx01zvns2b_c2_elabs,openbind_xx01zvns2b_c2_elabs_scored_6.2plus,syndirella_product,openbind_xx01zvns2b_c2_elabs_scored,openbind_xx01zvns2b_c2_elabs_scored_top80percent,BulkDock Fragalysis export

>  <subsites>  (365) 
1 - Z4590/B/203/1

>  <smiles>  (365) 
Cc1cc(C(=O)Nc2ccc3c(c2)C(=O)N(C)C3)c2c(C)nn(Cc3ccc(Cl)cc3)c2n1

>  <HIPPO Pose ID>  (365) 
116284

>  <energy_score>  (365) 
-18.084672

>  <inchikey>  (365) 
ORFDNDBOCYPKGV-UHFFFAOYSA-N

>  <gnina_score_min>  (365) 
6.408

>  <gnina_score>  (365) 
6.436

>  <ref_mols>  (365) 
Z3556a

>  <HIPPO Compound ID>  (365) 
179578

>  <distance_score>  (365) 
0.481225

>  <rmsd(smina/fragmenstein)>  (365) 
0.9

>  <ref_pdb>  (365) 
Z3556a

>  <inspiration_score>  (365) 
None

$$$$
P116285
     RDKit          3D

 33 37  0  0  0  0  0  0  0  0999 V2000
   -9.2055    3.8527  -18.1747 C   0  0  0  0  0  0  0  0  0  0  0  0
   -8.1024    4.3002  -17.2574 C   0  0  0  0  0  0  0  0  0  0  0  0
   -8.3576    4.4564  -15.8944 C   0  0  0  0  0  0  0  0  0  0  0  0
   -7.3483    4.9553  -15.0701 C   0  0  0  0  0  0  0  0  0  0  0  0
   -7.6414    5.4294  -13.7063 C   0  0  0  0  0  0  0  0  0  0  0  0
   -7.5875    6.5856  -13.5437 O   0  0  0  0  0  0  0  0  0  0  0  0
   -7.9307    4.2859  -12.7009 N   0  0  0  0  0  0  0  0  0  0  0  0
   -8.1149    4.3203  -11.3055 C   0  0  0  0  0  0  0  0  0  0  0  0
   -8.5468    3.1628  -10.6374 C   0  0  0  0  0  0  0  0  0  0  0  0
   -8.6869    3.2230   -9.2528 C   0  0  0  0  0  0  0  0  0  0  0  0
   -8.3730    4.3625   -8.5134 C   0  0  0  0  0  0  0  0  0  0  0  0
   -7.9564    5.5089   -9.1526 C   0  0  0  0  0  0  0  0  0  0  0  0
   -7.8354    5.4798  -10.5440 C   0  0  0  0  0  0  0  0  0  0  0  0
   -7.3633    6.5954  -11.1133 F   0  0  0  0  0  0  0  0  0  0  0  0
   -8.5329    4.1015   -7.0558 C   0  0  0  0  0  0  0  0  0  0  0  0
   -9.1008    2.7853   -7.0301 N   0  0  0  0  0  0  0  0  0  0  0  0
   -9.1537    2.2144   -8.2861 C   0  0  0  0  0  0  0  0  0  0  0  0
   -9.5571    1.0989   -8.5238 O   0  0  0  0  0  0  0  0  0  0  0  0
   -6.0916    5.2207  -15.6366 C   0  0  0  0  0  0  0  0  0  0  0  0
   -4.8176    5.7042  -15.2301 C   0  0  0  0  0  0  0  0  0  0  0  0
   -4.3865    6.1141  -13.8696 C   0  0  0  0  0  0  0  0  0  0  0  0
   -3.9478    5.7584  -16.2516 N   0  0  0  0  0  0  0  0  0  0  0  0
   -4.6788    5.3445  -17.3159 N   0  0  0  0  0  0  0  0  0  0  0  0
   -4.0699    5.2499  -18.6310 C   0  0  0  0  0  0  0  0  0  0  0  0
   -4.2789    6.4998  -19.4519 C   0  0  0  0  0  0  0  0  0  0  0  0
   -3.6492    7.7055  -19.1067 C   0  0  0  0  0  0  0  0  0  0  0  0
   -3.8455    8.8539  -19.8780 C   0  0  0  0  0  0  0  0  0  0  0  0
   -4.6630    8.7988  -21.0045 C   0  0  0  0  0  0  0  0  0  0  0  0
   -4.9334   10.2164  -21.9418 Cl  0  0  0  0  0  0  0  0  0  0  0  0
   -5.2827    7.6067  -21.3671 C   0  0  0  0  0  0  0  0  0  0  0  0
   -5.1022    6.4644  -20.5865 C   0  0  0  0  0  0  0  0  0  0  0  0
   -5.9632    4.9995  -16.9973 C   0  0  0  0  0  0  0  0  0  0  0  0
   -6.9107    4.5556  -17.8429 N   0  0  0  0  0  0  0  0  0  0  0  0
  1  2  1  0
  2  3  2  0
  3  4  1  0
  4  5  1  0
  5  6  2  0
  5  7  1  0
  7  8  1  0
  8  9  2  0
  9 10  1  0
 10 11  2  0
 11 12  1  0
 12 13  2  0
 13 14  1  0
 11 15  1  0
 15 16  1  0
 16 17  1  0
 17 18  2  0
  4 19  2  0
 19 20  1  0
 20 21  1  0
 20 22  2  0
 22 23  1  0
 23 24  1  0
 24 25  1  0
 25 26  2  0
 26 27  1  0
 27 28  2  0
 28 29  1  0
 28 30  1  0
 30 31  2  0
 23 32  1  0
 32 33  2  0
 33  2  1  0
 13  8  1  0
 32 19  1  0
 17 10  1  0
 31 25  1  0
M  END
>  <name>  (366) 
P116285

>  <alias>  (366) 
None

>  <smina_score_min>  (366) 
-9.042

>  <exports>  (366) 
['/opt/xchem-fragalysis-2/maxwin/BulkDock/OUTPUTS/openbind_xx01zvns2b_c2_elabs_1LOUTNY.sdf', '/opt/xchem-fragalysis-2/maxwin/BulkDock/OUTPUTS/openbind_xx01zvns2b_c2_elabs_1LSYIIV.sdf']

>  <tags>  (366) 
syndirella_placed,openbind_xx01zvns2b_c2_elabs,openbind_xx01zvns2b_c2_elabs_scored_6.2plus,syndirella_product,openbind_xx01zvns2b_c2_elabs_scored,openbind_xx01zvns2b_c2_elabs_scored_top80percent,BulkDock Fragalysis export

>  <subsites>  (366) 
1 - Z4590/B/203/1

>  <smiles>  (366) 
Cc1cc(C(=O)Nc2cc3c(cc2F)CNC3=O)c2c(C)nn(Cc3ccc(Cl)cc3)c2n1

>  <HIPPO Pose ID>  (366) 
116285

>  <energy_score>  (366) 
-27.610652

>  <inchikey>  (366) 
SRLNHNAKEUNOJA-UHFFFAOYSA-N

>  <gnina_score_min>  (366) 
6.608

>  <gnina_score>  (366) 
6.585

>  <ref_mols>  (366) 
Z3556a

>  <HIPPO Compound ID>  (366) 
179582

>  <distance_score>  (366) 
0.454854

>  <rmsd(smina/fragmenstein)>  (366) 
0.757

>  <ref_pdb>  (366) 
Z3556a

>  <inspiration_score>  (366) 
None

$$$$
P116286
     RDKit          3D

 33 37  0  0  0  0  0  0  0  0999 V2000
   -9.1456    3.8997  -18.2485 C   0  0  0  0  0  0  0  0  0  0  0  0
   -8.0110    4.3726  -17.3826 C   0  0  0  0  0  0  0  0  0  0  0  0
   -8.2316    4.5850  -16.0231 C   0  0  0  0  0  0  0  0  0  0  0  0
   -7.1894    5.0914  -15.2449 C   0  0  0  0  0  0  0  0  0  0  0  0
   -7.4281    5.5474  -13.8688 C   0  0  0  0  0  0  0  0  0  0  0  0
   -7.3203    6.6885  -13.6493 O   0  0  0  0  0  0  0  0  0  0  0  0
   -7.7934    4.3783  -12.9303 N   0  0  0  0  0  0  0  0  0  0  0  0
   -8.0029    4.3549  -11.5520 C   0  0  0  0  0  0  0  0  0  0  0  0
   -7.9966    5.5556  -10.8132 C   0  0  0  0  0  0  0  0  0  0  0  0
   -8.2403    5.5570   -9.4392 C   0  0  0  0  0  0  0  0  0  0  0  0
   -8.4896    4.3398   -8.8425 C   0  0  0  0  0  0  0  0  0  0  0  0
   -8.4923    3.1401   -9.5523 C   0  0  0  0  0  0  0  0  0  0  0  0
   -8.2401    3.1299  -10.9157 C   0  0  0  0  0  0  0  0  0  0  0  0
   -8.8498    2.0176   -8.6366 C   0  0  0  0  0  0  0  0  0  0  0  0
   -9.1235    2.7095   -7.3881 N   0  0  0  0  0  0  0  0  0  0  0  0
   -9.8673    2.0797   -6.3320 C   0  0  0  0  0  0  0  0  0  0  0  0
   -8.9090    4.0687   -7.4632 C   0  0  0  0  0  0  0  0  0  0  0  0
   -9.0938    4.9249   -6.6175 O   0  0  0  0  0  0  0  0  0  0  0  0
   -5.9418    5.3087  -15.8400 C   0  0  0  0  0  0  0  0  0  0  0  0
   -4.6459    5.7569  -15.4683 C   0  0  0  0  0  0  0  0  0  0  0  0
   -4.1682    6.1759  -14.1267 C   0  0  0  0  0  0  0  0  0  0  0  0
   -3.7999    5.7644  -16.5097 N   0  0  0  0  0  0  0  0  0  0  0  0
   -4.5696    5.3596  -17.5503 N   0  0  0  0  0  0  0  0  0  0  0  0
   -4.0024    5.2545  -18.8817 C   0  0  0  0  0  0  0  0  0  0  0  0
   -4.1525    6.5359  -19.6672 C   0  0  0  0  0  0  0  0  0  0  0  0
   -5.0505    6.6003  -20.7423 C   0  0  0  0  0  0  0  0  0  0  0  0
   -5.1825    7.7734  -21.4865 C   0  0  0  0  0  0  0  0  0  0  0  0
   -4.4347    8.8971  -21.1463 C   0  0  0  0  0  0  0  0  0  0  0  0
   -4.6314   10.3527  -22.0428 Cl  0  0  0  0  0  0  0  0  0  0  0  0
   -3.5427    8.8532  -20.0773 C   0  0  0  0  0  0  0  0  0  0  0  0
   -3.3985    7.6740  -19.3424 C   0  0  0  0  0  0  0  0  0  0  0  0
   -5.8521    5.0448  -17.1954 C   0  0  0  0  0  0  0  0  0  0  0  0
   -6.8284    4.5915  -18.0044 N   0  0  0  0  0  0  0  0  0  0  0  0
  1  2  1  0
  2  3  2  0
  3  4  1  0
  4  5  1  0
  5  6  2  0
  5  7  1  0
  7  8  1  0
  8  9  2  0
  9 10  1  0
 10 11  2  0
 11 12  1  0
 12 13  2  0
 12 14  1  0
 14 15  1  0
 15 16  1  0
 15 17  1  0
 17 18  2  0
  4 19  2  0
 19 20  1  0
 20 21  1  0
 20 22  2  0
 22 23  1  0
 23 24  1  0
 24 25  1  0
 25 26  2  0
 26 27  1  0
 27 28  2  0
 28 29  1  0
 28 30  1  0
 30 31  2  0
 23 32  1  0
 32 33  2  0
 33  2  1  0
 13  8  1  0
 32 19  1  0
 17 11  1  0
 31 25  1  0
M  END
>  <name>  (367) 
P116286

>  <alias>  (367) 
None

>  <smina_score_min>  (367) 
-9.139

>  <exports>  (367) 
['/opt/xchem-fragalysis-2/maxwin/BulkDock/OUTPUTS/openbind_xx01zvns2b_c2_elabs_1LOUTNY.sdf', '/opt/xchem-fragalysis-2/maxwin/BulkDock/OUTPUTS/openbind_xx01zvns2b_c2_elabs_1LSYIIV.sdf']

>  <tags>  (367) 
syndirella_placed,openbind_xx01zvns2b_c2_elabs,openbind_xx01zvns2b_c2_elabs_scored_6.2plus,syndirella_product,openbind_xx01zvns2b_c2_elabs_scored,openbind_xx01zvns2b_c2_elabs_scored_top80percent,BulkDock Fragalysis export

>  <subsites>  (367) 
1 - Z4590/B/203/1

>  <smiles>  (367) 
Cc1cc(C(=O)Nc2ccc3c(c2)CN(C)C3=O)c2c(C)nn(Cc3ccc(Cl)cc3)c2n1

>  <HIPPO Pose ID>  (367) 
116286

>  <energy_score>  (367) 
-35.202611

>  <inchikey>  (367) 
KTXYPIFUMAUONH-UHFFFAOYSA-N

>  <gnina_score_min>  (367) 
6.512

>  <gnina_score>  (367) 
6.464

>  <ref_mols>  (367) 
Z3556a

>  <HIPPO Compound ID>  (367) 
179583

>  <distance_score>  (367) 
0.454592

>  <rmsd(smina/fragmenstein)>  (367) 
0.865

>  <ref_pdb>  (367) 
Z3556a

>  <inspiration_score>  (367) 
None

$$$$
P116287
     RDKit          3D

 33 37  0  0  0  0  0  0  0  0999 V2000
   -9.2177    4.1384  -18.0621 C   0  0  0  0  0  0  0  0  0  0  0  0
   -8.1893    4.5144  -17.0291 C   0  0  0  0  0  0  0  0  0  0  0  0
   -8.4332    4.2446  -15.6858 C   0  0  0  0  0  0  0  0  0  0  0  0
   -7.4315    4.4425  -14.7214 C   0  0  0  0  0  0  0  0  0  0  0  0
   -7.6724    3.9292  -13.3479 C   0  0  0  0  0  0  0  0  0  0  0  0
   -7.8187    2.7836  -13.2639 O   0  0  0  0  0  0  0  0  0  0  0  0
   -7.7856    5.0216  -12.2870 N   0  0  0  0  0  0  0  0  0  0  0  0
   -8.0046    4.9305  -10.9145 C   0  0  0  0  0  0  0  0  0  0  0  0
   -7.7982    6.0376  -10.0820 C   0  0  0  0  0  0  0  0  0  0  0  0
   -7.9324    5.9042   -8.6928 C   0  0  0  0  0  0  0  0  0  0  0  0
   -8.2980    4.6660   -8.1892 C   0  0  0  0  0  0  0  0  0  0  0  0
   -8.5663    3.5906   -9.0103 C   0  0  0  0  0  0  0  0  0  0  0  0
   -8.4148    3.6898  -10.3772 C   0  0  0  0  0  0  0  0  0  0  0  0
   -8.9939    2.4828   -8.1508 C   0  0  0  0  0  0  0  0  0  0  0  0
   -9.4547    1.4238   -8.5146 O   0  0  0  0  0  0  0  0  0  0  0  0
   -8.8634    2.9194   -6.8676 N   0  0  0  0  0  0  0  0  0  0  0  0
   -8.4590    4.2140   -6.8060 C   0  0  0  0  0  0  0  0  0  0  0  0
   -8.2440    4.8983   -5.8232 O   0  0  0  0  0  0  0  0  0  0  0  0
   -6.1841    4.8864  -15.1829 C   0  0  0  0  0  0  0  0  0  0  0  0
   -4.8680    5.0947  -14.6921 C   0  0  0  0  0  0  0  0  0  0  0  0
   -4.3567    4.8261  -13.3243 C   0  0  0  0  0  0  0  0  0  0  0  0
   -4.0493    5.6065  -15.6272 N   0  0  0  0  0  0  0  0  0  0  0  0
   -4.8183    5.6460  -16.7449 N   0  0  0  0  0  0  0  0  0  0  0  0
   -4.4340    6.5010  -17.8530 C   0  0  0  0  0  0  0  0  0  0  0  0
   -3.9150    5.8182  -19.0804 C   0  0  0  0  0  0  0  0  0  0  0  0
   -4.7746    5.5509  -20.1559 C   0  0  0  0  0  0  0  0  0  0  0  0
   -4.2554    5.1366  -21.3817 C   0  0  0  0  0  0  0  0  0  0  0  0
   -2.8803    4.9686  -21.5273 C   0  0  0  0  0  0  0  0  0  0  0  0
   -2.2215    4.5608  -23.0615 Cl  0  0  0  0  0  0  0  0  0  0  0  0
   -2.0275    5.1677  -20.4459 C   0  0  0  0  0  0  0  0  0  0  0  0
   -2.5426    5.5802  -19.2196 C   0  0  0  0  0  0  0  0  0  0  0  0
   -6.0888    5.1806  -16.5389 C   0  0  0  0  0  0  0  0  0  0  0  0
   -7.0453    5.0675  -17.4791 N   0  0  0  0  0  0  0  0  0  0  0  0
  1  2  1  0
  2  3  2  0
  3  4  1  0
  4  5  1  0
  5  6  2  0
  5  7  1  0
  7  8  1  0
  8  9  2  0
  9 10  1  0
 10 11  2  0
 11 12  1  0
 12 13  2  0
 12 14  1  0
 14 15  2  0
 14 16  1  0
 16 17  1  0
 17 18  2  0
  4 19  2  0
 19 20  1  0
 20 21  1  0
 20 22  2  0
 22 23  1  0
 23 24  1  0
 24 25  1  0
 25 26  2  0
 26 27  1  0
 27 28  2  0
 28 29  1  0
 28 30  1  0
 30 31  2  0
 23 32  1  0
 32 33  2  0
 33  2  1  0
 13  8  1  0
 32 19  1  0
 17 11  1  0
 31 25  1  0
M  END
>  <name>  (368) 
P116287

>  <alias>  (368) 
None

>  <smina_score_min>  (368) 
-9.219

>  <exports>  (368) 
['/opt/xchem-fragalysis-2/maxwin/BulkDock/OUTPUTS/openbind_xx01zvns2b_c2_elabs_1LOUTNY.sdf', '/opt/xchem-fragalysis-2/maxwin/BulkDock/OUTPUTS/openbind_xx01zvns2b_c2_elabs_1LSYIIV.sdf']

>  <tags>  (368) 
syndirella_placed,openbind_xx01zvns2b_c2_elabs,openbind_xx01zvns2b_c2_elabs_scored_6.2plus,syndirella_product,openbind_xx01zvns2b_c2_elabs_scored,openbind_xx01zvns2b_c2_elabs_scored_top80percent,BulkDock Fragalysis export

>  <subsites>  (368) 
1 - Z4590/B/203/1

>  <smiles>  (368) 
Cc1cc(C(=O)Nc2ccc3c(c2)C(=O)NC3=O)c2c(C)nn(Cc3ccc(Cl)cc3)c2n1

>  <HIPPO Pose ID>  (368) 
116287

>  <energy_score>  (368) 
-12.107338

>  <inchikey>  (368) 
ANCITAALONZSTD-UHFFFAOYSA-N

>  <gnina_score_min>  (368) 
6.318

>  <gnina_score>  (368) 
6.312

>  <ref_mols>  (368) 
Z3556a

>  <HIPPO Compound ID>  (368) 
179585

>  <distance_score>  (368) 
1.097945

>  <rmsd(smina/fragmenstein)>  (368) 
1.117

>  <ref_pdb>  (368) 
Z3556a

>  <inspiration_score>  (368) 
None

$$$$
P116297
     RDKit          3D

 33 37  0  0  0  0  0  0  0  0999 V2000
   -9.3739    2.9159  -18.1452 C   0  0  0  0  0  0  0  0  0  0  0  0
   -9.1529    4.3944  -18.1088 C   0  0  0  0  0  0  0  0  0  0  0  0
   -7.9121    4.7095  -17.3143 C   0  0  0  0  0  0  0  0  0  0  0  0
   -8.0266    4.9048  -15.9393 C   0  0  0  0  0  0  0  0  0  0  0  0
   -6.8905    5.2686  -15.2215 C   0  0  0  0  0  0  0  0  0  0  0  0
   -7.0064    5.6798  -13.8211 C   0  0  0  0  0  0  0  0  0  0  0  0
   -6.8158    6.7989  -13.5537 O   0  0  0  0  0  0  0  0  0  0  0  0
   -7.4014    4.4912  -12.9233 N   0  0  0  0  0  0  0  0  0  0  0  0
   -7.7257    4.4487  -11.5722 C   0  0  0  0  0  0  0  0  0  0  0  0
   -7.6585    5.6125  -10.7839 C   0  0  0  0  0  0  0  0  0  0  0  0
   -7.9826    5.5834   -9.4275 C   0  0  0  0  0  0  0  0  0  0  0  0
   -8.3766    4.3771   -8.8916 C   0  0  0  0  0  0  0  0  0  0  0  0
   -8.4421    3.2192   -9.6709 C   0  0  0  0  0  0  0  0  0  0  0  0
   -8.1177    3.2317  -11.0134 C   0  0  0  0  0  0  0  0  0  0  0  0
   -8.9064    2.0895   -8.8096 C   0  0  0  0  0  0  0  0  0  0  0  0
   -9.5484    2.7852   -7.6753 N   0  0  0  0  0  0  0  0  0  0  0  0
   -9.6108    1.9681   -6.4830 C   0  0  0  0  0  0  0  0  0  0  0  0
  -10.5582    2.5993   -5.4744 C   0  0  0  0  0  0  0  0  0  0  0  0
   -8.8010    4.0440   -7.4996 C   0  0  0  0  0  0  0  0  0  0  0  0
   -5.6667    5.3651  -15.8856 C   0  0  0  0  0  0  0  0  0  0  0  0
   -4.3106    5.6551  -15.5851 C   0  0  0  0  0  0  0  0  0  0  0  0
   -3.7129    5.9822  -14.2665 C   0  0  0  0  0  0  0  0  0  0  0  0
   -3.5314    5.5887  -16.6757 N   0  0  0  0  0  0  0  0  0  0  0  0
   -4.4058    5.3205  -17.6776 N   0  0  0  0  0  0  0  0  0  0  0  0
   -3.9427    5.1933  -19.0459 C   0  0  0  0  0  0  0  0  0  0  0  0
   -3.9337    6.5152  -19.7734 C   0  0  0  0  0  0  0  0  0  0  0  0
   -4.9546    6.8320  -20.6814 C   0  0  0  0  0  0  0  0  0  0  0  0
   -4.9281    8.0373  -21.3844 C   0  0  0  0  0  0  0  0  0  0  0  0
   -3.8944    8.9471  -21.1712 C   0  0  0  0  0  0  0  0  0  0  0  0
   -2.8858    8.6521  -20.2553 C   0  0  0  0  0  0  0  0  0  0  0  0
   -2.9035    7.4419  -19.5605 C   0  0  0  0  0  0  0  0  0  0  0  0
   -5.6890    5.1304  -17.2489 C   0  0  0  0  0  0  0  0  0  0  0  0
   -6.7539    4.8066  -18.0058 N   0  0  0  0  0  0  0  0  0  0  0  0
  1  2  1  0
  2  3  1  0
  3  4  2  0
  4  5  1  0
  5  6  1  0
  6  7  2  0
  6  8  1  0
  8  9  1  0
  9 10  2  0
 10 11  1  0
 11 12  2  0
 12 13  1  0
 13 14  2  0
 13 15  1  0
 15 16  1  0
 16 17  1  0
 17 18  1  0
 16 19  1  0
  5 20  2  0
 20 21  1  0
 21 22  1  0
 21 23  2  0
 23 24  1  0
 24 25  1  0
 25 26  1  0
 26 27  2  0
 27 28  1  0
 28 29  2  0
 29 30  1  0
 30 31  2  0
 24 32  1  0
 32 33  2  0
 33  3  1  0
 14  9  1  0
 32 20  1  0
 19 12  1  0
 31 26  1  0
M  END
>  <name>  (369) 
P116297

>  <alias>  (369) 
None

>  <smina_score_min>  (369) 
-8.417

>  <exports>  (369) 
['/opt/xchem-fragalysis-2/maxwin/BulkDock/OUTPUTS/openbind_xx01zvns2b_c2_elabs_1LOUTNY.sdf', '/opt/xchem-fragalysis-2/maxwin/BulkDock/OUTPUTS/openbind_xx01zvns2b_c2_elabs_1LSYIIV.sdf']

>  <tags>  (369) 
syndirella_placed,openbind_xx01zvns2b_c2_elabs,openbind_xx01zvns2b_c2_elabs_scored_6.2plus,syndirella_product,openbind_xx01zvns2b_c2_elabs_scored,openbind_xx01zvns2b_c2_elabs_scored_top80percent,BulkDock Fragalysis export

>  <subsites>  (369) 
1 - Z4590/B/203/1

>  <smiles>  (369) 
CCc1cc(C(=O)Nc2ccc3c(c2)CN(CC)C3)c2c(C)nn(Cc3ccccc3)c2n1

>  <HIPPO Pose ID>  (369) 
116297

>  <energy_score>  (369) 
-45.938941

>  <inchikey>  (369) 
URXWYEMSKLKRTM-UHFFFAOYSA-N

>  <gnina_score_min>  (369) 
6.561

>  <gnina_score>  (369) 
6.366

>  <ref_mols>  (369) 
Z3556a

>  <HIPPO Compound ID>  (369) 
179601

>  <distance_score>  (369) 
0.628058

>  <rmsd(smina/fragmenstein)>  (369) 
0.803

>  <ref_pdb>  (369) 
Z3556a

>  <inspiration_score>  (369) 
None

$$$$
P116300
     RDKit          3D

 33 37  0  0  0  0  0  0  0  0999 V2000
   -9.7022    4.6185  -18.7389 C   0  0  0  0  0  0  0  0  0  0  0  0
   -8.8268    3.5562  -18.1482 C   0  0  0  0  0  0  0  0  0  0  0  0
   -7.8005    4.1916  -17.2494 C   0  0  0  0  0  0  0  0  0  0  0  0
   -8.0973    4.4757  -15.9203 C   0  0  0  0  0  0  0  0  0  0  0  0
   -7.1203    5.1015  -15.1435 C   0  0  0  0  0  0  0  0  0  0  0  0
   -7.4254    5.5596  -13.7836 C   0  0  0  0  0  0  0  0  0  0  0  0
   -7.4600    6.7097  -13.5883 O   0  0  0  0  0  0  0  0  0  0  0  0
   -7.6849    4.3745  -12.8296 N   0  0  0  0  0  0  0  0  0  0  0  0
   -7.9394    4.3543  -11.4607 C   0  0  0  0  0  0  0  0  0  0  0  0
   -7.9545    5.5543  -10.7222 C   0  0  0  0  0  0  0  0  0  0  0  0
   -8.2336    5.5530   -9.3553 C   0  0  0  0  0  0  0  0  0  0  0  0
   -8.4966    4.3343   -8.7670 C   0  0  0  0  0  0  0  0  0  0  0  0
   -8.4828    3.1359   -9.4784 C   0  0  0  0  0  0  0  0  0  0  0  0
   -8.1931    3.1277  -10.8338 C   0  0  0  0  0  0  0  0  0  0  0  0
   -8.8662    2.0120   -8.5751 C   0  0  0  0  0  0  0  0  0  0  0  0
   -9.1595    2.7001   -7.3284 N   0  0  0  0  0  0  0  0  0  0  0  0
   -9.9399    2.0764   -6.2948 C   0  0  0  0  0  0  0  0  0  0  0  0
   -8.9446    4.0602   -7.3977 C   0  0  0  0  0  0  0  0  0  0  0  0
   -9.1483    4.9149   -6.5548 O   0  0  0  0  0  0  0  0  0  0  0  0
   -5.8740    5.3909  -15.7122 C   0  0  0  0  0  0  0  0  0  0  0  0
   -4.6239    5.9481  -15.3328 C   0  0  0  0  0  0  0  0  0  0  0  0
   -4.2183    6.4644  -14.0013 C   0  0  0  0  0  0  0  0  0  0  0  0
   -3.7484    5.9633  -16.3514 N   0  0  0  0  0  0  0  0  0  0  0  0
   -4.4594    5.4610  -17.3913 N   0  0  0  0  0  0  0  0  0  0  0  0
   -3.8461    5.2940  -18.6957 C   0  0  0  0  0  0  0  0  0  0  0  0
   -4.0323    6.5044  -19.5761 C   0  0  0  0  0  0  0  0  0  0  0  0
   -3.2280    7.6409  -19.4103 C   0  0  0  0  0  0  0  0  0  0  0  0
   -3.3830    8.7464  -20.2483 C   0  0  0  0  0  0  0  0  0  0  0  0
   -4.3408    8.7270  -21.2609 C   0  0  0  0  0  0  0  0  0  0  0  0
   -5.1526    7.6069  -21.4271 C   0  0  0  0  0  0  0  0  0  0  0  0
   -5.0089    6.5056  -20.5822 C   0  0  0  0  0  0  0  0  0  0  0  0
   -5.7235    5.0747  -17.0488 C   0  0  0  0  0  0  0  0  0  0  0  0
   -6.6320    4.5045  -17.8544 N   0  0  0  0  0  0  0  0  0  0  0  0
  1  2  1  0
  2  3  1  0
  3  4  2  0
  4  5  1  0
  5  6  1  0
  6  7  2  0
  6  8  1  0
  8  9  1  0
  9 10  2  0
 10 11  1  0
 11 12  2  0
 12 13  1  0
 13 14  2  0
 13 15  1  0
 15 16  1  0
 16 17  1  0
 16 18  1  0
 18 19  2  0
  5 20  2  0
 20 21  1  0
 21 22  1  0
 21 23  2  0
 23 24  1  0
 24 25  1  0
 25 26  1  0
 26 27  2  0
 27 28  1  0
 28 29  2  0
 29 30  1  0
 30 31  2  0
 24 32  1  0
 32 33  2  0
 33  3  1  0
 14  9  1  0
 32 20  1  0
 18 12  1  0
 31 26  1  0
M  END
>  <name>  (370) 
P116300

>  <alias>  (370) 
None

>  <smina_score_min>  (370) 
-8.722

>  <exports>  (370) 
['/opt/xchem-fragalysis-2/maxwin/BulkDock/OUTPUTS/openbind_xx01zvns2b_c2_elabs_1LOUTNY.sdf', '/opt/xchem-fragalysis-2/maxwin/BulkDock/OUTPUTS/openbind_xx01zvns2b_c2_elabs_1LSYIIV.sdf']

>  <tags>  (370) 
syndirella_placed,openbind_xx01zvns2b_c2_elabs,openbind_xx01zvns2b_c2_elabs_scored_6.2plus,syndirella_product,openbind_xx01zvns2b_c2_elabs_scored,openbind_xx01zvns2b_c2_elabs_scored_top80percent,BulkDock Fragalysis export

>  <subsites>  (370) 
1 - Z4590/B/203/1

>  <smiles>  (370) 
CCc1cc(C(=O)Nc2ccc3c(c2)CN(C)C3=O)c2c(C)nn(Cc3ccccc3)c2n1

>  <HIPPO Pose ID>  (370) 
116300

>  <energy_score>  (370) 
-33.551894

>  <inchikey>  (370) 
OBZLFOXOIAQJSN-UHFFFAOYSA-N

>  <gnina_score_min>  (370) 
6.428

>  <gnina_score>  (370) 
6.372

>  <ref_mols>  (370) 
Z3556a

>  <HIPPO Compound ID>  (370) 
179606

>  <distance_score>  (370) 
0.530345

>  <rmsd(smina/fragmenstein)>  (370) 
0.862

>  <ref_pdb>  (370) 
Z3556a

>  <inspiration_score>  (370) 
None

$$$$
P116301
     RDKit          3D

 33 37  0  0  0  0  0  0  0  0999 V2000
  -10.2631    4.3689  -18.3623 C   0  0  0  0  0  0  0  0  0  0  0  0
   -9.0316    3.5567  -18.0553 C   0  0  0  0  0  0  0  0  0  0  0  0
   -8.0137    4.2448  -17.1819 C   0  0  0  0  0  0  0  0  0  0  0  0
   -8.2243    4.3490  -15.8018 C   0  0  0  0  0  0  0  0  0  0  0  0
   -7.1892    4.8267  -14.9942 C   0  0  0  0  0  0  0  0  0  0  0  0
   -7.4122    5.2708  -13.6003 C   0  0  0  0  0  0  0  0  0  0  0  0
   -7.1326    6.3848  -13.3799 O   0  0  0  0  0  0  0  0  0  0  0  0
   -7.9460    4.1642  -12.6567 N   0  0  0  0  0  0  0  0  0  0  0  0
   -8.1502    4.1709  -11.2695 C   0  0  0  0  0  0  0  0  0  0  0  0
   -7.8859    5.3572  -10.5449 C   0  0  0  0  0  0  0  0  0  0  0  0
   -7.9761    5.4028   -9.1507 C   0  0  0  0  0  0  0  0  0  0  0  0
   -8.3556    4.2453   -8.5100 C   0  0  0  0  0  0  0  0  0  0  0  0
   -8.6743    3.0905   -9.2055 C   0  0  0  0  0  0  0  0  0  0  0  0
   -8.5690    3.0175  -10.5909 C   0  0  0  0  0  0  0  0  0  0  0  0
   -9.0993    2.1111   -8.1956 C   0  0  0  0  0  0  0  0  0  0  0  0
   -9.6050    1.0301   -8.4018 O   0  0  0  0  0  0  0  0  0  0  0  0
   -8.9185    2.6909   -6.9771 N   0  0  0  0  0  0  0  0  0  0  0  0
   -8.4859    3.9712   -7.0790 C   0  0  0  0  0  0  0  0  0  0  0  0
   -8.2372    4.7610   -6.1880 O   0  0  0  0  0  0  0  0  0  0  0  0
   -5.9537    5.1099  -15.6035 C   0  0  0  0  0  0  0  0  0  0  0  0
   -4.6445    5.5112  -15.2221 C   0  0  0  0  0  0  0  0  0  0  0  0
   -4.0961    5.6818  -13.8533 C   0  0  0  0  0  0  0  0  0  0  0  0
   -3.8627    5.7568  -16.2844 N   0  0  0  0  0  0  0  0  0  0  0  0
   -4.6957    5.5859  -17.3450 N   0  0  0  0  0  0  0  0  0  0  0  0
   -4.5102    6.4422  -18.5050 C   0  0  0  0  0  0  0  0  0  0  0  0
   -4.0762    5.7964  -19.7832 C   0  0  0  0  0  0  0  0  0  0  0  0
   -4.9091    5.8857  -20.9083 C   0  0  0  0  0  0  0  0  0  0  0  0
   -4.4438    5.5212  -22.1674 C   0  0  0  0  0  0  0  0  0  0  0  0
   -3.1476    5.0372  -22.3119 C   0  0  0  0  0  0  0  0  0  0  0  0
   -2.3298    4.9053  -21.1931 C   0  0  0  0  0  0  0  0  0  0  0  0
   -2.7879    5.2768  -19.9300 C   0  0  0  0  0  0  0  0  0  0  0  0
   -5.9115    5.0559  -16.9867 C   0  0  0  0  0  0  0  0  0  0  0  0
   -6.9011    4.6808  -17.8147 N   0  0  0  0  0  0  0  0  0  0  0  0
  1  2  1  0
  2  3  1  0
  3  4  2  0
  4  5  1  0
  5  6  1  0
  6  7  2  0
  6  8  1  0
  8  9  1  0
  9 10  2  0
 10 11  1  0
 11 12  2  0
 12 13  1  0
 13 14  2  0
 13 15  1  0
 15 16  2  0
 15 17  1  0
 17 18  1  0
 18 19  2  0
  5 20  2  0
 20 21  1  0
 21 22  1  0
 21 23  2  0
 23 24  1  0
 24 25  1  0
 25 26  1  0
 26 27  2  0
 27 28  1  0
 28 29  2  0
 29 30  1  0
 30 31  2  0
 24 32  1  0
 32 33  2  0
 33  3  1  0
 14  9  1  0
 32 20  1  0
 18 12  1  0
 31 26  1  0
M  END
>  <name>  (371) 
P116301

>  <alias>  (371) 
None

>  <smina_score_min>  (371) 
-9.236

>  <exports>  (371) 
['/opt/xchem-fragalysis-2/maxwin/BulkDock/OUTPUTS/openbind_xx01zvns2b_c2_elabs_1LOUTNY.sdf', '/opt/xchem-fragalysis-2/maxwin/BulkDock/OUTPUTS/openbind_xx01zvns2b_c2_elabs_1LSYIIV.sdf']

>  <tags>  (371) 
syndirella_placed,openbind_xx01zvns2b_c2_elabs,openbind_xx01zvns2b_c2_elabs_scored_6.2plus,syndirella_product,openbind_xx01zvns2b_c2_elabs_scored,openbind_xx01zvns2b_c2_elabs_scored_top80percent,BulkDock Fragalysis export

>  <subsites>  (371) 
1 - Z4590/B/203/1

>  <smiles>  (371) 
CCc1cc(C(=O)Nc2ccc3c(c2)C(=O)NC3=O)c2c(C)nn(Cc3ccccc3)c2n1

>  <HIPPO Pose ID>  (371) 
116301

>  <energy_score>  (371) 
-14.301788

>  <inchikey>  (371) 
DWOYRTXAGWMJQX-UHFFFAOYSA-N

>  <gnina_score_min>  (371) 
6.431

>  <gnina_score>  (371) 
6.51

>  <ref_mols>  (371) 
Z3556a

>  <HIPPO Compound ID>  (371) 
179607

>  <distance_score>  (371) 
0.493659

>  <rmsd(smina/fragmenstein)>  (371) 
0.575

>  <ref_pdb>  (371) 
Z3556a

>  <inspiration_score>  (371) 
None

$$$$
P116305
     RDKit          3D

 33 38  0  0  0  0  0  0  0  0999 V2000
  -10.6000    2.6011   -5.4084 C   0  0  0  0  0  0  0  0  0  0  0  0
   -9.6256    1.9858   -6.3985 C   0  0  0  0  0  0  0  0  0  0  0  0
   -9.5776    2.7893   -7.5984 N   0  0  0  0  0  0  0  0  0  0  0  0
   -8.8474    4.0601   -7.4285 C   0  0  0  0  0  0  0  0  0  0  0  0
   -8.4207    4.3853   -8.8202 C   0  0  0  0  0  0  0  0  0  0  0  0
   -8.0525    5.5942   -9.3687 C   0  0  0  0  0  0  0  0  0  0  0  0
   -7.7328    5.6144  -10.7247 C   0  0  0  0  0  0  0  0  0  0  0  0
   -7.7710    4.4361  -11.4915 C   0  0  0  0  0  0  0  0  0  0  0  0
   -7.4573    4.4557  -12.8402 N   0  0  0  0  0  0  0  0  0  0  0  0
   -7.0242    5.6195  -13.7491 C   0  0  0  0  0  0  0  0  0  0  0  0
   -6.7881    6.7315  -13.4923 O   0  0  0  0  0  0  0  0  0  0  0  0
   -6.8966    5.1658  -15.1344 C   0  0  0  0  0  0  0  0  0  0  0  0
   -7.9944    4.6087  -15.7889 C   0  0  0  0  0  0  0  0  0  0  0  0
   -7.8685    4.2636  -17.1236 C   0  0  0  0  0  0  0  0  0  0  0  0
   -9.0133    3.6553  -17.8843 C   0  0  0  0  0  0  0  0  0  0  0  0
  -10.3707    4.2832  -18.0392 C   0  0  0  0  0  0  0  0  0  0  0  0
   -9.3719    4.4221  -19.1164 C   0  0  0  0  0  0  0  0  0  0  0  0
   -6.7337    4.4755  -17.8304 N   0  0  0  0  0  0  0  0  0  0  0  0
   -5.6898    4.9917  -17.1567 C   0  0  0  0  0  0  0  0  0  0  0  0
   -5.6860    5.3243  -15.8146 C   0  0  0  0  0  0  0  0  0  0  0  0
   -4.3578    5.7212  -15.5356 C   0  0  0  0  0  0  0  0  0  0  0  0
   -3.7779    6.1590  -14.2399 C   0  0  0  0  0  0  0  0  0  0  0  0
   -3.5712    5.6299  -16.6146 N   0  0  0  0  0  0  0  0  0  0  0  0
   -4.4174    5.2710  -17.6327 N   0  0  0  0  0  0  0  0  0  0  0  0
   -3.9617    5.2431  -18.9885 C   0  0  0  0  0  0  0  0  0  0  0  0
   -2.5936    5.3506  -19.2384 C   0  0  0  0  0  0  0  0  0  0  0  0
   -2.1489    5.3542  -20.5594 C   0  0  0  0  0  0  0  0  0  0  0  0
   -3.0724    5.2825  -21.5943 C   0  0  0  0  0  0  0  0  0  0  0  0
   -4.4118    5.1928  -21.2640 C   0  0  0  0  0  0  0  0  0  0  0  0
   -4.8695    5.1506  -19.9962 N   0  0  0  0  0  0  0  0  0  0  0  0
   -8.1325    3.2167  -10.9212 C   0  0  0  0  0  0  0  0  0  0  0  0
   -8.4622    3.2160   -9.5840 C   0  0  0  0  0  0  0  0  0  0  0  0
   -8.9193    2.0889   -8.7190 C   0  0  0  0  0  0  0  0  0  0  0  0
  1  2  1  0
  2  3  1  0
  3  4  1  0
  4  5  1  0
  5  6  2  0
  6  7  1  0
  7  8  2  0
  8  9  1  0
  9 10  1  0
 10 11  2  0
 10 12  1  0
 12 13  2  0
 13 14  1  0
 14 15  1  0
 15 16  1  0
 16 17  1  0
 14 18  2  0
 18 19  1  0
 19 20  2  0
 20 21  1  0
 21 22  1  0
 21 23  2  0
 23 24  1  0
 24 25  1  0
 25 26  2  0
 26 27  1  0
 27 28  2  0
 28 29  1  0
 29 30  2  0
  8 31  1  0
 31 32  2  0
 32 33  1  0
 33  3  1  0
 32  5  1  0
 20 12  1  0
 30 25  1  0
 17 15  1  0
 24 19  1  0
M  END
>  <name>  (372) 
P116305

>  <alias>  (372) 
None

>  <smina_score_min>  (372) 
-8.018

>  <exports>  (372) 
['/opt/xchem-fragalysis-2/maxwin/BulkDock/OUTPUTS/openbind_xx01zvns2b_c2_elabs_1LOUTNY.sdf', '/opt/xchem-fragalysis-2/maxwin/BulkDock/OUTPUTS/openbind_xx01zvns2b_c2_elabs_1LSYIIV.sdf']

>  <tags>  (372) 
syndirella_placed,openbind_xx01zvns2b_c2_elabs,openbind_xx01zvns2b_c2_elabs_scored_6.2plus,syndirella_product,openbind_xx01zvns2b_c2_elabs_scored,openbind_xx01zvns2b_c2_elabs_scored_top80percent,BulkDock Fragalysis export

>  <subsites>  (372) 
1 - Z4590/B/203/1

>  <smiles>  (372) 
CCN1Cc2ccc(NC(=O)c3cc(C4CC4)nc4c3c(C)nn4-c3ccccn3)cc2C1

>  <HIPPO Pose ID>  (372) 
116305

>  <energy_score>  (372) 
-38.128683

>  <inchikey>  (372) 
KYSYUAPDHBSJEB-UHFFFAOYSA-N

>  <gnina_score_min>  (372) 
6.399

>  <gnina_score>  (372) 
6.456

>  <ref_mols>  (372) 
Z3556a

>  <HIPPO Compound ID>  (372) 
179612

>  <distance_score>  (372) 
0.5787

>  <rmsd(smina/fragmenstein)>  (372) 
0.864

>  <ref_pdb>  (372) 
Z3556a

>  <inspiration_score>  (372) 
None

$$$$
P116315
     RDKit          3D

 33 37  0  0  0  0  0  0  0  0999 V2000
   -3.4626    5.8121  -14.2279 C   0  0  0  0  0  0  0  0  0  0  0  0
   -4.1504    5.5302  -15.5134 C   0  0  0  0  0  0  0  0  0  0  0  0
   -3.4375    5.4639  -16.6462 N   0  0  0  0  0  0  0  0  0  0  0  0
   -4.3704    5.2863  -17.6273 N   0  0  0  0  0  0  0  0  0  0  0  0
   -3.9965    5.3768  -18.9889 C   0  0  0  0  0  0  0  0  0  0  0  0
   -2.6817    5.0776  -19.3709 C   0  0  0  0  0  0  0  0  0  0  0  0
   -2.3176    5.1357  -20.7196 C   0  0  0  0  0  0  0  0  0  0  0  0
   -3.2494    5.5068  -21.6888 C   0  0  0  0  0  0  0  0  0  0  0  0
   -4.5433    5.8499  -21.3048 C   0  0  0  0  0  0  0  0  0  0  0  0
   -4.9062    5.7992  -19.9592 C   0  0  0  0  0  0  0  0  0  0  0  0
   -6.1009    6.3046  -19.6266 F   0  0  0  0  0  0  0  0  0  0  0  0
   -5.6220    5.0265  -17.0935 C   0  0  0  0  0  0  0  0  0  0  0  0
   -6.7242    4.6133  -17.7481 N   0  0  0  0  0  0  0  0  0  0  0  0
   -7.8369    4.4917  -16.9951 C   0  0  0  0  0  0  0  0  0  0  0  0
   -9.1247    4.1661  -17.7160 C   0  0  0  0  0  0  0  0  0  0  0  0
   -9.3837    2.7020  -17.8453 C   0  0  0  0  0  0  0  0  0  0  0  0
   -9.0970    4.6829  -19.1143 C   0  0  0  0  0  0  0  0  0  0  0  0
   -7.8753    4.7367  -15.6312 C   0  0  0  0  0  0  0  0  0  0  0  0
   -6.7008    5.1383  -14.9935 C   0  0  0  0  0  0  0  0  0  0  0  0
   -6.7449    5.5358  -13.5825 C   0  0  0  0  0  0  0  0  0  0  0  0
   -6.3939    6.6071  -13.2856 O   0  0  0  0  0  0  0  0  0  0  0  0
   -7.3336    4.4035  -12.7210 N   0  0  0  0  0  0  0  0  0  0  0  0
   -7.6895    4.3832  -11.3815 C   0  0  0  0  0  0  0  0  0  0  0  0
   -7.6163    5.5450  -10.5927 C   0  0  0  0  0  0  0  0  0  0  0  0
   -7.9808    5.5200   -9.2456 C   0  0  0  0  0  0  0  0  0  0  0  0
   -8.4191    4.3221   -8.7231 C   0  0  0  0  0  0  0  0  0  0  0  0
   -8.4961    3.1724   -9.5116 C   0  0  0  0  0  0  0  0  0  0  0  0
   -8.1363    3.1789  -10.8423 C   0  0  0  0  0  0  0  0  0  0  0  0
   -8.9893    2.0426   -8.6727 C   0  0  0  0  0  0  0  0  0  0  0  0
   -9.6221    2.7286   -7.5229 N   0  0  0  0  0  0  0  0  0  0  0  0
   -9.6041    1.8935   -6.3469 C   0  0  0  0  0  0  0  0  0  0  0  0
   -8.8644    3.9823   -7.3380 C   0  0  0  0  0  0  0  0  0  0  0  0
   -5.5208    5.2567  -15.7332 C   0  0  0  0  0  0  0  0  0  0  0  0
  1  2  1  0
  2  3  2  0
  3  4  1  0
  4  5  1  0
  5  6  2  0
  6  7  1  0
  7  8  2  0
  8  9  1  0
  9 10  2  0
 10 11  1  0
  4 12  1  0
 12 13  2  0
 13 14  1  0
 14 15  1  0
 15 16  1  0
 15 17  1  0
 14 18  2  0
 18 19  1  0
 19 20  1  0
 20 21  2  0
 20 22  1  0
 22 23  1  0
 23 24  2  0
 24 25  1  0
 25 26  2  0
 26 27  1  0
 27 28  2  0
 27 29  1  0
 29 30  1  0
 30 31  1  0
 30 32  1  0
 19 33  2  0
 33  2  1  0
 10  5  1  0
 33 12  1  0
 28 23  1  0
 32 26  1  0
M  END
>  <name>  (373) 
P116315

>  <alias>  (373) 
None

>  <smina_score_min>  (373) 
-7.683

>  <exports>  (373) 
['/opt/xchem-fragalysis-2/maxwin/BulkDock/OUTPUTS/openbind_xx01zvns2b_c2_elabs_1LOUTNY.sdf', '/opt/xchem-fragalysis-2/maxwin/BulkDock/OUTPUTS/openbind_xx01zvns2b_c2_elabs_1LSYIIV.sdf']

>  <tags>  (373) 
syndirella_placed,openbind_xx01zvns2b_c2_elabs,openbind_xx01zvns2b_c2_elabs_scored_6.2plus,syndirella_product,openbind_xx01zvns2b_c2_elabs_scored,openbind_xx01zvns2b_c2_elabs_scored_top80percent,BulkDock Fragalysis export

>  <subsites>  (373) 
1 - Z4590/B/203/1

>  <smiles>  (373) 
Cc1nn(-c2ccccc2F)c2nc(C(C)C)cc(C(=O)Nc3ccc4c(c3)CN(C)C4)c12

>  <HIPPO Pose ID>  (373) 
116315

>  <energy_score>  (373) 
-62.470944

>  <inchikey>  (373) 
UPYLBDTVZCWWDQ-UHFFFAOYSA-N

>  <gnina_score_min>  (373) 
6.418

>  <gnina_score>  (373) 
6.363

>  <ref_mols>  (373) 
Z3556a

>  <HIPPO Compound ID>  (373) 
179626

>  <distance_score>  (373) 
0.613211

>  <rmsd(smina/fragmenstein)>  (373) 
0.327

>  <ref_pdb>  (373) 
Z3556a

>  <inspiration_score>  (373) 
None

$$$$
P116316
     RDKit          3D

 33 37  0  0  0  0  0  0  0  0999 V2000
   -4.0485    6.1591  -13.7774 C   0  0  0  0  0  0  0  0  0  0  0  0
   -4.5595    5.8562  -15.1388 C   0  0  0  0  0  0  0  0  0  0  0  0
   -3.7133    5.8461  -16.1785 N   0  0  0  0  0  0  0  0  0  0  0  0
   -4.5038    5.6096  -17.2672 N   0  0  0  0  0  0  0  0  0  0  0  0
   -3.9440    5.6171  -18.5691 C   0  0  0  0  0  0  0  0  0  0  0  0
   -2.5755    5.3556  -18.7292 C   0  0  0  0  0  0  0  0  0  0  0  0
   -2.0167    5.3063  -20.0085 C   0  0  0  0  0  0  0  0  0  0  0  0
   -2.8084    5.5374  -21.1326 C   0  0  0  0  0  0  0  0  0  0  0  0
   -4.1573    5.8468  -20.9742 C   0  0  0  0  0  0  0  0  0  0  0  0
   -4.7157    5.8987  -19.6970 C   0  0  0  0  0  0  0  0  0  0  0  0
   -5.9695    6.3575  -19.5972 F   0  0  0  0  0  0  0  0  0  0  0  0
   -5.8030    5.3182  -16.8873 C   0  0  0  0  0  0  0  0  0  0  0  0
   -6.7971    4.8791  -17.6724 N   0  0  0  0  0  0  0  0  0  0  0  0
   -7.9356    4.5248  -17.0527 C   0  0  0  0  0  0  0  0  0  0  0  0
   -8.9371    3.7447  -17.8773 C   0  0  0  0  0  0  0  0  0  0  0  0
   -8.3353    3.2539  -19.1825 C   0  0  0  0  0  0  0  0  0  0  0  0
  -10.2515    4.4341  -18.1883 C   0  0  0  0  0  0  0  0  0  0  0  0
   -8.1537    4.7247  -15.6937 C   0  0  0  0  0  0  0  0  0  0  0  0
   -7.1198    5.2553  -14.9176 C   0  0  0  0  0  0  0  0  0  0  0  0
   -7.3453    5.6253  -13.5110 C   0  0  0  0  0  0  0  0  0  0  0  0
   -7.1627    6.7393  -13.2131 O   0  0  0  0  0  0  0  0  0  0  0  0
   -7.8221    4.4261  -12.6607 N   0  0  0  0  0  0  0  0  0  0  0  0
   -8.0742    4.3292  -11.2920 C   0  0  0  0  0  0  0  0  0  0  0  0
   -8.0539    5.4828  -10.4832 C   0  0  0  0  0  0  0  0  0  0  0  0
   -8.2685    5.3997   -9.1055 C   0  0  0  0  0  0  0  0  0  0  0  0
   -8.5085    4.1486   -8.5772 C   0  0  0  0  0  0  0  0  0  0  0  0
   -8.5408    2.9964   -9.3588 C   0  0  0  0  0  0  0  0  0  0  0  0
   -8.3273    3.0712  -10.7280 C   0  0  0  0  0  0  0  0  0  0  0  0
   -8.7710    1.8091   -8.4839 C   0  0  0  0  0  0  0  0  0  0  0  0
   -8.9766    2.4040   -7.1777 N   0  0  0  0  0  0  0  0  0  0  0  0
   -8.7281    3.7600   -7.1799 C   0  0  0  0  0  0  0  0  0  0  0  0
   -8.6652    4.5040   -6.2197 O   0  0  0  0  0  0  0  0  0  0  0  0
   -5.8738    5.4928  -15.5177 C   0  0  0  0  0  0  0  0  0  0  0  0
  1  2  1  0
  2  3  2  0
  3  4  1  0
  4  5  1  0
  5  6  2  0
  6  7  1  0
  7  8  2  0
  8  9  1  0
  9 10  2  0
 10 11  1  0
  4 12  1  0
 12 13  2  0
 13 14  1  0
 14 15  1  0
 15 16  1  0
 15 17  1  0
 14 18  2  0
 18 19  1  0
 19 20  1  0
 20 21  2  0
 20 22  1  0
 22 23  1  0
 23 24  2  0
 24 25  1  0
 25 26  2  0
 26 27  1  0
 27 28  2  0
 27 29  1  0
 29 30  1  0
 30 31  1  0
 31 32  2  0
 19 33  2  0
 33  2  1  0
 10  5  1  0
 33 12  1  0
 28 23  1  0
 31 26  1  0
M  END
>  <name>  (374) 
P116316

>  <alias>  (374) 
None

>  <smina_score_min>  (374) 
-8.362

>  <exports>  (374) 
['/opt/xchem-fragalysis-2/maxwin/BulkDock/OUTPUTS/openbind_xx01zvns2b_c2_elabs_1LOUTNY.sdf', '/opt/xchem-fragalysis-2/maxwin/BulkDock/OUTPUTS/openbind_xx01zvns2b_c2_elabs_1LSYIIV.sdf']

>  <tags>  (374) 
syndirella_placed,openbind_xx01zvns2b_c2_elabs,openbind_xx01zvns2b_c2_elabs_scored_6.2plus,syndirella_product,openbind_xx01zvns2b_c2_elabs_scored,openbind_xx01zvns2b_c2_elabs_scored_top80percent,BulkDock Fragalysis export

>  <subsites>  (374) 
1 - Z4590/B/203/1

>  <smiles>  (374) 
Cc1nn(-c2ccccc2F)c2nc(C(C)C)cc(C(=O)Nc3ccc4c(c3)CNC4=O)c12

>  <HIPPO Pose ID>  (374) 
116316

>  <energy_score>  (374) 
-10.651457

>  <inchikey>  (374) 
WQRMGSVDMIWMCO-UHFFFAOYSA-N

>  <gnina_score_min>  (374) 
6.495

>  <gnina_score>  (374) 
6.536

>  <ref_mols>  (374) 
Z3556a

>  <HIPPO Compound ID>  (374) 
179627

>  <distance_score>  (374) 
0.498285

>  <rmsd(smina/fragmenstein)>  (374) 
1.201

>  <ref_pdb>  (374) 
Z3556a

>  <inspiration_score>  (374) 
None

$$$$
P116317
     RDKit          3D

 33 37  0  0  0  0  0  0  0  0999 V2000
   -3.9467    6.1172  -13.5980 C   0  0  0  0  0  0  0  0  0  0  0  0
   -4.4155    5.7442  -14.9574 C   0  0  0  0  0  0  0  0  0  0  0  0
   -3.5546    5.7912  -15.9807 N   0  0  0  0  0  0  0  0  0  0  0  0
   -4.2681    5.4104  -17.0739 N   0  0  0  0  0  0  0  0  0  0  0  0
   -3.6844    5.4191  -18.3761 C   0  0  0  0  0  0  0  0  0  0  0  0
   -4.4780    5.3462  -19.5339 C   0  0  0  0  0  0  0  0  0  0  0  0
   -3.8942    5.3528  -20.8062 C   0  0  0  0  0  0  0  0  0  0  0  0
   -2.5115    5.4218  -20.9394 C   0  0  0  0  0  0  0  0  0  0  0  0
   -1.7158    5.5035  -19.7997 C   0  0  0  0  0  0  0  0  0  0  0  0
   -2.2972    5.5145  -18.5309 C   0  0  0  0  0  0  0  0  0  0  0  0
   -1.4628    5.5882  -17.4845 F   0  0  0  0  0  0  0  0  0  0  0  0
   -5.5656    5.0703  -16.7115 C   0  0  0  0  0  0  0  0  0  0  0  0
   -6.5226    4.5833  -17.5075 N   0  0  0  0  0  0  0  0  0  0  0  0
   -7.7093    4.2910  -16.9416 C   0  0  0  0  0  0  0  0  0  0  0  0
   -8.7072    3.6715  -17.9052 C   0  0  0  0  0  0  0  0  0  0  0  0
   -8.2849    3.9374  -19.3260 C   0  0  0  0  0  0  0  0  0  0  0  0
  -10.1292    4.1133  -17.7445 C   0  0  0  0  0  0  0  0  0  0  0  0
   -7.9705    4.4999  -15.5903 C   0  0  0  0  0  0  0  0  0  0  0  0
   -6.9570    5.0340  -14.7856 C   0  0  0  0  0  0  0  0  0  0  0  0
   -7.2172    5.4613  -13.3973 C   0  0  0  0  0  0  0  0  0  0  0  0
   -6.9626    6.5737  -13.1438 O   0  0  0  0  0  0  0  0  0  0  0  0
   -7.6971    4.3076  -12.4820 N   0  0  0  0  0  0  0  0  0  0  0  0
   -8.0430    4.3073  -11.1270 C   0  0  0  0  0  0  0  0  0  0  0  0
   -7.8636    5.4874  -10.3751 C   0  0  0  0  0  0  0  0  0  0  0  0
   -8.0535    5.5119   -8.9909 C   0  0  0  0  0  0  0  0  0  0  0  0
   -8.4530    4.3458   -8.3743 C   0  0  0  0  0  0  0  0  0  0  0  0
   -8.7049    3.1985   -9.1276 C   0  0  0  0  0  0  0  0  0  0  0  0
   -8.4913    3.1402  -10.4994 C   0  0  0  0  0  0  0  0  0  0  0  0
   -9.1838    2.1744   -8.1847 C   0  0  0  0  0  0  0  0  0  0  0  0
   -9.5616    1.0539   -8.4425 O   0  0  0  0  0  0  0  0  0  0  0  0
   -9.1839    2.7367   -6.9231 N   0  0  0  0  0  0  0  0  0  0  0  0
   -8.6530    4.0690   -6.9243 C   0  0  0  0  0  0  0  0  0  0  0  0
   -5.6964    5.2963  -15.3557 C   0  0  0  0  0  0  0  0  0  0  0  0
  1  2  1  0
  2  3  2  0
  3  4  1  0
  4  5  1  0
  5  6  2  0
  6  7  1  0
  7  8  2  0
  8  9  1  0
  9 10  2  0
 10 11  1  0
  4 12  1  0
 12 13  2  0
 13 14  1  0
 14 15  1  0
 15 16  1  0
 15 17  1  0
 14 18  2  0
 18 19  1  0
 19 20  1  0
 20 21  2  0
 20 22  1  0
 22 23  1  0
 23 24  2  0
 24 25  1  0
 25 26  2  0
 26 27  1  0
 27 28  2  0
 27 29  1  0
 29 30  2  0
 29 31  1  0
 31 32  1  0
 19 33  2  0
 33  2  1  0
 10  5  1  0
 33 12  1  0
 28 23  1  0
 32 26  1  0
M  END
>  <name>  (375) 
P116317

>  <alias>  (375) 
None

>  <smina_score_min>  (375) 
-8.605

>  <exports>  (375) 
['/opt/xchem-fragalysis-2/maxwin/BulkDock/OUTPUTS/openbind_xx01zvns2b_c2_elabs_1LOUTNY.sdf', '/opt/xchem-fragalysis-2/maxwin/BulkDock/OUTPUTS/openbind_xx01zvns2b_c2_elabs_1LSYIIV.sdf']

>  <tags>  (375) 
syndirella_placed,openbind_xx01zvns2b_c2_elabs,openbind_xx01zvns2b_c2_elabs_scored_6.2plus,syndirella_product,openbind_xx01zvns2b_c2_elabs_scored,openbind_xx01zvns2b_c2_elabs_scored_top80percent,BulkDock Fragalysis export

>  <subsites>  (375) 
1 - Z4590/B/203/1

>  <smiles>  (375) 
Cc1nn(-c2ccccc2F)c2nc(C(C)C)cc(C(=O)Nc3ccc4c(c3)C(=O)NC4)c12

>  <HIPPO Pose ID>  (375) 
116317

>  <energy_score>  (375) 
-36.090763

>  <inchikey>  (375) 
ATMVFUWHCKGVQS-UHFFFAOYSA-N

>  <gnina_score_min>  (375) 
6.44

>  <gnina_score>  (375) 
6.482

>  <ref_mols>  (375) 
Z3556a

>  <HIPPO Compound ID>  (375) 
179628

>  <distance_score>  (375) 
0.60747

>  <rmsd(smina/fragmenstein)>  (375) 
0.925

>  <ref_pdb>  (375) 
Z3556a

>  <inspiration_score>  (375) 
None

$$$$
P116331
     RDKit          3D

 33 38  0  0  0  0  0  0  0  0999 V2000
   -4.3780    5.5101  -19.9687 C   0  0  0  0  0  0  0  0  0  0  0  0
   -3.3912    5.5884  -18.8001 C   0  0  0  0  0  0  0  0  0  0  0  0
   -2.1952    4.6667  -19.0469 C   0  0  0  0  0  0  0  0  0  0  0  0
   -3.9456    5.4115  -17.4609 N   0  0  0  0  0  0  0  0  0  0  0  0
   -3.1542    5.7071  -16.3938 N   0  0  0  0  0  0  0  0  0  0  0  0
   -3.9934    5.6754  -15.3545 C   0  0  0  0  0  0  0  0  0  0  0  0
   -5.3061    5.3423  -15.7263 C   0  0  0  0  0  0  0  0  0  0  0  0
   -6.5625    5.2290  -15.1286 C   0  0  0  0  0  0  0  0  0  0  0  0
   -6.7471    5.6835  -13.7459 C   0  0  0  0  0  0  0  0  0  0  0  0
   -6.3622    6.7505  -13.4718 O   0  0  0  0  0  0  0  0  0  0  0  0
   -7.4868    4.6364  -12.8883 N   0  0  0  0  0  0  0  0  0  0  0  0
   -7.8121    4.6432  -11.5386 C   0  0  0  0  0  0  0  0  0  0  0  0
   -7.4781    5.7618  -10.7420 C   0  0  0  0  0  0  0  0  0  0  0  0
   -7.6453    5.7435   -9.3575 C   0  0  0  0  0  0  0  0  0  0  0  0
   -8.1589    4.5912   -8.8151 C   0  0  0  0  0  0  0  0  0  0  0  0
   -8.5530    3.5260   -9.6002 C   0  0  0  0  0  0  0  0  0  0  0  0
   -8.3956    3.5117  -10.9716 C   0  0  0  0  0  0  0  0  0  0  0  0
   -9.0338    2.4933   -8.7036 C   0  0  0  0  0  0  0  0  0  0  0  0
   -9.5046    1.4481   -9.0899 O   0  0  0  0  0  0  0  0  0  0  0  0
   -8.8460    2.9530   -7.4366 N   0  0  0  0  0  0  0  0  0  0  0  0
   -8.9380    2.0889   -6.2965 C   0  0  0  0  0  0  0  0  0  0  0  0
  -10.2194    2.1759   -5.5458 C   0  0  0  0  0  0  0  0  0  0  0  0
  -10.7003    3.5168   -5.0996 C   0  0  0  0  0  0  0  0  0  0  0  0
  -11.5059    2.6882   -6.0680 C   0  0  0  0  0  0  0  0  0  0  0  0
   -8.2903    4.1958   -7.4197 C   0  0  0  0  0  0  0  0  0  0  0  0
   -7.8887    4.8787   -6.4942 O   0  0  0  0  0  0  0  0  0  0  0  0
   -7.6600    4.9186  -15.9262 C   0  0  0  0  0  0  0  0  0  0  0  0
   -7.4698    4.7644  -17.2978 C   0  0  0  0  0  0  0  0  0  0  0  0
   -8.6145    4.7394  -18.2414 C   0  0  0  0  0  0  0  0  0  0  0  0
   -9.0599    3.4893  -18.8912 C   0  0  0  0  0  0  0  0  0  0  0  0
   -9.9617    4.1745  -17.9233 C   0  0  0  0  0  0  0  0  0  0  0  0
   -6.2632    4.8466  -17.8956 N   0  0  0  0  0  0  0  0  0  0  0  0
   -5.2388    5.1464  -17.0916 C   0  0  0  0  0  0  0  0  0  0  0  0
  1  2  1  0
  2  3  1  0
  2  4  1  0
  4  5  1  0
  5  6  2  0
  6  7  1  0
  7  8  2  0
  8  9  1  0
  9 10  2  0
  9 11  1  0
 11 12  1  0
 12 13  2  0
 13 14  1  0
 14 15  2  0
 15 16  1  0
 16 17  2  0
 16 18  1  0
 18 19  2  0
 18 20  1  0
 20 21  1  0
 21 22  1  0
 22 23  1  0
 23 24  1  0
 20 25  1  0
 25 26  2  0
  8 27  1  0
 27 28  2  0
 28 29  1  0
 29 30  1  0
 30 31  1  0
 28 32  1  0
 32 33  2  0
 33  4  1  0
 33  7  1  0
 17 12  1  0
 24 22  1  0
 31 29  1  0
 25 15  1  0
M  END
>  <name>  (376) 
P116331

>  <alias>  (376) 
None

>  <smina_score_min>  (376) 
-7.87

>  <exports>  (376) 
['/opt/xchem-fragalysis-2/maxwin/BulkDock/OUTPUTS/openbind_xx01zvns2b_c2_elabs_1LOUTNY.sdf', '/opt/xchem-fragalysis-2/maxwin/BulkDock/OUTPUTS/openbind_xx01zvns2b_c2_elabs_1LSYIIV.sdf']

>  <tags>  (376) 
syndirella_placed,openbind_xx01zvns2b_c2_elabs,openbind_xx01zvns2b_c2_elabs_scored_6.2plus,syndirella_product,openbind_xx01zvns2b_c2_elabs_scored,openbind_xx01zvns2b_c2_elabs_scored_top80percent,BulkDock Fragalysis export

>  <subsites>  (376) 
1 - Z4590/B/203/1

>  <smiles>  (376) 
CC(C)n1ncc2c(C(=O)Nc3ccc4c(c3)C(=O)N(CC3CC3)C4=O)cc(C3CC3)nc21

>  <HIPPO Pose ID>  (376) 
116331

>  <energy_score>  (376) 
-51.902553

>  <inchikey>  (376) 
QADFYIATNKSKBI-UHFFFAOYSA-N

>  <gnina_score_min>  (376) 
6.34

>  <gnina_score>  (376) 
6.191

>  <ref_mols>  (376) 
Z3556a

>  <HIPPO Compound ID>  (376) 
179659

>  <distance_score>  (376) 
0.837844

>  <rmsd(smina/fragmenstein)>  (376) 
0.9

>  <ref_pdb>  (376) 
Z3556a

>  <inspiration_score>  (376) 
None

$$$$
P116341
     RDKit          3D

 33 37  0  0  0  0  0  0  0  0999 V2000
   -9.2366    3.8581  -18.4912 C   0  0  0  0  0  0  0  0  0  0  0  0
   -8.0719    4.2851  -17.6489 C   0  0  0  0  0  0  0  0  0  0  0  0
   -8.2783    4.5097  -16.2943 C   0  0  0  0  0  0  0  0  0  0  0  0
   -7.2144    4.9960  -15.5443 C   0  0  0  0  0  0  0  0  0  0  0  0
   -7.4595    5.5885  -14.2378 C   0  0  0  0  0  0  0  0  0  0  0  0
   -7.2755    6.7375  -14.1461 O   0  0  0  0  0  0  0  0  0  0  0  0
   -7.9152    4.5619  -13.1822 N   0  0  0  0  0  0  0  0  0  0  0  0
   -8.1404    4.7086  -11.8211 C   0  0  0  0  0  0  0  0  0  0  0  0
   -8.1065    6.0215  -11.3146 C   0  0  0  0  0  0  0  0  0  0  0  0
   -8.1633    6.2676   -9.9612 C   0  0  0  0  0  0  0  0  0  0  0  0
   -8.2567    5.1746   -9.1374 C   0  0  0  0  0  0  0  0  0  0  0  0
   -8.3720    3.8625   -9.6114 C   0  0  0  0  0  0  0  0  0  0  0  0
   -8.3189    3.6079  -10.9741 C   0  0  0  0  0  0  0  0  0  0  0  0
   -8.5312    2.9325   -8.4367 C   0  0  0  0  0  0  0  0  0  0  0  0
   -8.1172    3.8049   -7.3024 N   0  0  0  0  0  0  0  0  0  0  0  0
   -8.5653    3.6644   -5.9963 C   0  0  0  0  0  0  0  0  0  0  0  0
   -9.8080    3.1386   -5.6847 C   0  0  0  0  0  0  0  0  0  0  0  0
  -10.3086    3.2939   -4.4019 C   0  0  0  0  0  0  0  0  0  0  0  0
   -9.5638    3.9266   -3.4004 C   0  0  0  0  0  0  0  0  0  0  0  0
   -8.2910    4.3922   -3.6754 C   0  0  0  0  0  0  0  0  0  0  0  0
   -7.8012    4.2590   -4.9673 C   0  0  0  0  0  0  0  0  0  0  0  0
   -8.2249    5.2189   -7.6630 C   0  0  0  0  0  0  0  0  0  0  0  0
   -5.9620    5.1696  -16.1411 C   0  0  0  0  0  0  0  0  0  0  0  0
   -4.6565    5.6004  -15.7834 C   0  0  0  0  0  0  0  0  0  0  0  0
   -4.1566    6.0089  -14.4468 C   0  0  0  0  0  0  0  0  0  0  0  0
   -3.8279    5.6075  -16.8399 N   0  0  0  0  0  0  0  0  0  0  0  0
   -4.6204    5.2214  -17.8672 N   0  0  0  0  0  0  0  0  0  0  0  0
   -4.0940    5.2199  -19.2090 C   0  0  0  0  0  0  0  0  0  0  0  0
   -3.7488    6.6183  -19.6546 C   0  0  0  0  0  0  0  0  0  0  0  0
   -4.8717    7.3671  -19.8196 F   0  0  0  0  0  0  0  0  0  0  0  0
   -3.1553    6.5655  -20.8797 F   0  0  0  0  0  0  0  0  0  0  0  0
   -5.8942    4.9040  -17.4944 C   0  0  0  0  0  0  0  0  0  0  0  0
   -6.8898    4.4676  -18.2861 N   0  0  0  0  0  0  0  0  0  0  0  0
  1  2  1  0
  2  3  2  0
  3  4  1  0
  4  5  1  0
  5  6  2  0
  5  7  1  0
  7  8  1  0
  8  9  2  0
  9 10  1  0
 10 11  2  0
 11 12  1  0
 12 13  2  0
 12 14  1  0
 14 15  1  0
 15 16  1  0
 16 17  2  0
 17 18  1  0
 18 19  2  0
 19 20  1  0
 20 21  2  0
 15 22  1  0
  4 23  2  0
 23 24  1  0
 24 25  1  0
 24 26  2  0
 26 27  1  0
 27 28  1  0
 28 29  1  0
 29 30  1  0
 29 31  1  0
 27 32  1  0
 32 33  2  0
 33  2  1  0
 13  8  1  0
 21 16  1  0
 32 23  1  0
 22 11  1  0
M  END
>  <name>  (377) 
P116341

>  <alias>  (377) 
None

>  <smina_score_min>  (377) 
-9.01

>  <exports>  (377) 
['/opt/xchem-fragalysis-2/maxwin/BulkDock/OUTPUTS/openbind_xx01zvns2b_c2_elabs_1LOUTNY.sdf', '/opt/xchem-fragalysis-2/maxwin/BulkDock/OUTPUTS/openbind_xx01zvns2b_c2_elabs_1LSYIIV.sdf']

>  <tags>  (377) 
syndirella_placed,openbind_xx01zvns2b_c2_elabs,openbind_xx01zvns2b_c2_elabs_scored_6.2plus,syndirella_product,openbind_xx01zvns2b_c2_elabs_scored,openbind_xx01zvns2b_c2_elabs_scored_top80percent,BulkDock Fragalysis export

>  <subsites>  (377) 
1 - Z4590/B/203/1

>  <smiles>  (377) 
Cc1cc(C(=O)Nc2ccc3c(c2)CN(c2ccccc2)C3)c2c(C)nn(CC(F)F)c2n1

>  <HIPPO Pose ID>  (377) 
116341

>  <energy_score>  (377) 
-14.064784

>  <inchikey>  (377) 
GCNFZEUXAJEKTI-UHFFFAOYSA-N

>  <gnina_score_min>  (377) 
6.345

>  <gnina_score>  (377) 
6.238

>  <ref_mols>  (377) 
Z3556a

>  <HIPPO Compound ID>  (377) 
179673

>  <distance_score>  (377) 
0.888474

>  <rmsd(smina/fragmenstein)>  (377) 
0.662

>  <ref_pdb>  (377) 
Z3556a

>  <inspiration_score>  (377) 
None

$$$$
P116343
     RDKit          3D

 33 37  0  0  0  0  0  0  0  0999 V2000
   -9.0424    4.2337   -2.7699 C   0  0  0  0  0  0  0  0  0  0  0  0
   -8.7710    3.9426   -4.2377 C   0  0  0  0  0  0  0  0  0  0  0  0
   -9.9055    3.1542   -4.9090 C   0  0  0  0  0  0  0  0  0  0  0  0
   -9.4764    2.3523   -6.1523 C   0  0  0  0  0  0  0  0  0  0  0  0
   -9.4855    3.1144   -7.3855 N   0  0  0  0  0  0  0  0  0  0  0  0
   -8.6816    4.3374   -7.3403 C   0  0  0  0  0  0  0  0  0  0  0  0
   -8.3159    4.5701   -8.7593 C   0  0  0  0  0  0  0  0  0  0  0  0
   -7.8552    5.7275   -9.3405 C   0  0  0  0  0  0  0  0  0  0  0  0
   -7.5273    5.6702  -10.6854 C   0  0  0  0  0  0  0  0  0  0  0  0
   -7.6591    4.4724  -11.4114 C   0  0  0  0  0  0  0  0  0  0  0  0
   -7.2880    4.4479  -12.7448 N   0  0  0  0  0  0  0  0  0  0  0  0
   -6.7691    5.5726  -13.6594 C   0  0  0  0  0  0  0  0  0  0  0  0
   -6.4985    6.6806  -13.4164 O   0  0  0  0  0  0  0  0  0  0  0  0
   -6.6925    5.1319  -15.0476 C   0  0  0  0  0  0  0  0  0  0  0  0
   -7.8514    4.7149  -15.6944 C   0  0  0  0  0  0  0  0  0  0  0  0
   -7.8333    4.5478  -17.0735 C   0  0  0  0  0  0  0  0  0  0  0  0
   -9.1458    4.3283  -17.7614 C   0  0  0  0  0  0  0  0  0  0  0  0
   -9.6172    3.0140  -18.2675 C   0  0  0  0  0  0  0  0  0  0  0  0
   -9.1562    4.0512  -19.2297 C   0  0  0  0  0  0  0  0  0  0  0  0
   -6.7133    4.7221  -17.8242 N   0  0  0  0  0  0  0  0  0  0  0  0
   -5.6137    5.0788  -17.1384 C   0  0  0  0  0  0  0  0  0  0  0  0
   -5.5222    5.3128  -15.7805 C   0  0  0  0  0  0  0  0  0  0  0  0
   -4.1838    5.7232  -15.5672 C   0  0  0  0  0  0  0  0  0  0  0  0
   -3.5230    6.1053  -14.2946 C   0  0  0  0  0  0  0  0  0  0  0  0
   -3.4931    5.7706  -16.7139 N   0  0  0  0  0  0  0  0  0  0  0  0
   -4.3667    5.3334  -17.6451 N   0  0  0  0  0  0  0  0  0  0  0  0
   -4.0102    5.3168  -19.0459 C   0  0  0  0  0  0  0  0  0  0  0  0
   -2.5927    4.8669  -19.3332 C   0  0  0  0  0  0  0  0  0  0  0  0
   -1.6828    5.7873  -18.9339 F   0  0  0  0  0  0  0  0  0  0  0  0
   -2.3077    3.6990  -18.7144 F   0  0  0  0  0  0  0  0  0  0  0  0
   -8.1467    3.3094  -10.8130 C   0  0  0  0  0  0  0  0  0  0  0  0
   -8.4730    3.3811   -9.4750 C   0  0  0  0  0  0  0  0  0  0  0  0
   -8.9838    2.3285   -8.5422 C   0  0  0  0  0  0  0  0  0  0  0  0
  1  2  1  0
  2  3  1  0
  3  4  1  0
  4  5  1  0
  5  6  1  0
  6  7  1  0
  7  8  2  0
  8  9  1  0
  9 10  2  0
 10 11  1  0
 11 12  1  0
 12 13  2  0
 12 14  1  0
 14 15  2  0
 15 16  1  0
 16 17  1  0
 17 18  1  0
 18 19  1  0
 16 20  2  0
 20 21  1  0
 21 22  2  0
 22 23  1  0
 23 24  1  0
 23 25  2  0
 25 26  1  0
 26 27  1  0
 27 28  1  0
 28 29  1  0
 28 30  1  0
 10 31  1  0
 31 32  2  0
 32 33  1  0
 33  5  1  0
 32  7  1  0
 22 14  1  0
 19 17  1  0
 26 21  1  0
M  END
>  <name>  (378) 
P116343

>  <alias>  (378) 
None

>  <smina_score_min>  (378) 
-7.255

>  <exports>  (378) 
['/opt/xchem-fragalysis-2/maxwin/BulkDock/OUTPUTS/openbind_xx01zvns2b_c2_elabs_1LOUTNY.sdf', '/opt/xchem-fragalysis-2/maxwin/BulkDock/OUTPUTS/openbind_xx01zvns2b_c2_elabs_1LSYIIV.sdf']

>  <tags>  (378) 
syndirella_placed,openbind_xx01zvns2b_c2_elabs,openbind_xx01zvns2b_c2_elabs_scored_6.2plus,syndirella_product,openbind_xx01zvns2b_c2_elabs_scored,openbind_xx01zvns2b_c2_elabs_scored_top80percent,BulkDock Fragalysis export

>  <subsites>  (378) 
1 - Z4590/B/203/1

>  <smiles>  (378) 
CCCCN1Cc2ccc(NC(=O)c3cc(C4CC4)nc4c3c(C)nn4CC(F)F)cc2C1

>  <HIPPO Pose ID>  (378) 
116343

>  <energy_score>  (378) 
-23.713331

>  <inchikey>  (378) 
UHPNHUCZWYUVNH-UHFFFAOYSA-N

>  <gnina_score_min>  (378) 
6.371

>  <gnina_score>  (378) 
6.324

>  <ref_mols>  (378) 
Z3556a

>  <HIPPO Compound ID>  (378) 
179676

>  <distance_score>  (378) 
0.685151

>  <rmsd(smina/fragmenstein)>  (378) 
0.806

>  <ref_pdb>  (378) 
Z3556a

>  <inspiration_score>  (378) 
None

$$$$
P116346
     RDKit          3D

 33 36  0  0  0  0  0  0  0  0999 V2000
   -8.9285    3.8595  -18.4309 C   0  0  0  0  0  0  0  0  0  0  0  0
   -7.8311    4.3888  -17.5503 C   0  0  0  0  0  0  0  0  0  0  0  0
   -8.0956    4.6253  -16.2039 C   0  0  0  0  0  0  0  0  0  0  0  0
   -7.0919    5.1975  -15.4245 C   0  0  0  0  0  0  0  0  0  0  0  0
   -7.4028    5.7939  -14.1174 C   0  0  0  0  0  0  0  0  0  0  0  0
   -7.3372    6.9907  -14.1045 O   0  0  0  0  0  0  0  0  0  0  0  0
   -7.7332    4.8631  -13.0812 N   0  0  0  0  0  0  0  0  0  0  0  0
   -7.9887    5.0586  -11.7225 C   0  0  0  0  0  0  0  0  0  0  0  0
   -7.9918    6.3740  -11.2072 C   0  0  0  0  0  0  0  0  0  0  0  0
   -8.1257    6.6186   -9.8448 C   0  0  0  0  0  0  0  0  0  0  0  0
   -8.2659    5.5236   -9.0335 C   0  0  0  0  0  0  0  0  0  0  0  0
   -8.3060    4.2496   -9.5140 C   0  0  0  0  0  0  0  0  0  0  0  0
   -8.1691    3.9695  -10.8626 C   0  0  0  0  0  0  0  0  0  0  0  0
   -8.3575    3.4526   -8.2640 C   0  0  0  0  0  0  0  0  0  0  0  0
   -9.1061    4.1840   -7.1030 N   0  0  0  0  0  0  0  0  0  0  0  0
   -9.0295    3.4020   -5.8966 C   0  0  0  0  0  0  0  0  0  0  0  0
   -8.2178    3.4183   -5.0032 O   0  0  0  0  0  0  0  0  0  0  0  0
  -10.2756    2.4558   -5.8438 C   0  0  0  0  0  0  0  0  0  0  0  0
  -11.3761    3.0353   -6.4139 F   0  0  0  0  0  0  0  0  0  0  0  0
  -10.0841    1.2853   -6.5082 F   0  0  0  0  0  0  0  0  0  0  0  0
  -10.6654    2.1628   -4.5761 F   0  0  0  0  0  0  0  0  0  0  0  0
   -8.2680    5.3415   -7.5772 C   0  0  0  0  0  0  0  0  0  0  0  0
   -5.8412    5.4619  -16.0068 C   0  0  0  0  0  0  0  0  0  0  0  0
   -4.5919    6.0043  -15.6168 C   0  0  0  0  0  0  0  0  0  0  0  0
   -4.1657    6.4623  -14.2709 C   0  0  0  0  0  0  0  0  0  0  0  0
   -3.7389    6.0846  -16.6444 N   0  0  0  0  0  0  0  0  0  0  0  0
   -4.4566    5.6460  -17.7161 N   0  0  0  0  0  0  0  0  0  0  0  0
   -3.8536    5.7913  -19.0537 C   0  0  0  0  0  0  0  0  0  0  0  0
   -3.4990    7.2789  -19.2873 C   0  0  0  0  0  0  0  0  0  0  0  0
   -4.7744    5.3712  -20.2174 C   0  0  0  0  0  0  0  0  0  0  0  0
   -2.5578    4.9587  -19.1240 C   0  0  0  0  0  0  0  0  0  0  0  0
   -5.7097    5.2000  -17.3613 C   0  0  0  0  0  0  0  0  0  0  0  0
   -6.6567    4.6758  -18.1607 N   0  0  0  0  0  0  0  0  0  0  0  0
  1  2  1  0
  2  3  2  0
  3  4  1  0
  4  5  1  0
  5  6  2  0
  5  7  1  0
  7  8  1  0
  8  9  2  0
  9 10  1  0
 10 11  2  0
 11 12  1  0
 12 13  2  0
 12 14  1  0
 14 15  1  0
 15 16  1  0
 16 17  2  0
 16 18  1  0
 18 19  1  0
 18 20  1  0
 18 21  1  0
 15 22  1  0
  4 23  2  0
 23 24  1  0
 24 25  1  0
 24 26  2  0
 26 27  1  0
 27 28  1  0
 28 29  1  0
 28 30  1  0
 28 31  1  0
 27 32  1  0
 32 33  2  0
 33  2  1  0
 13  8  1  0
 32 23  1  0
 22 11  1  0
M  END
>  <name>  (379) 
P116346

>  <alias>  (379) 
None

>  <smina_score_min>  (379) 
-9.332

>  <exports>  (379) 
['/opt/xchem-fragalysis-2/maxwin/BulkDock/OUTPUTS/openbind_xx01zvns2b_c2_elabs_1LOUTNY.sdf', '/opt/xchem-fragalysis-2/maxwin/BulkDock/OUTPUTS/openbind_xx01zvns2b_c2_elabs_1LSYIIV.sdf']

>  <tags>  (379) 
syndirella_placed,openbind_xx01zvns2b_c2_elabs,openbind_xx01zvns2b_c2_elabs_scored_6.2plus,syndirella_product,openbind_xx01zvns2b_c2_elabs_scored,openbind_xx01zvns2b_c2_elabs_scored_top80percent,BulkDock Fragalysis export

>  <subsites>  (379) 
1 - Z4590/B/203/1

>  <smiles>  (379) 
Cc1cc(C(=O)Nc2ccc3c(c2)CN(C(=O)C(F)(F)F)C3)c2c(C)nn(C(C)(C)C)c2n1

>  <HIPPO Pose ID>  (379) 
116346

>  <energy_score>  (379) 
-1.114626

>  <inchikey>  (379) 
OASKNSKOHJJHGG-UHFFFAOYSA-N

>  <gnina_score_min>  (379) 
6.294

>  <gnina_score>  (379) 
6.275

>  <ref_mols>  (379) 
Z3556a

>  <HIPPO Compound ID>  (379) 
179679

>  <distance_score>  (379) 
1.115636

>  <rmsd(smina/fragmenstein)>  (379) 
0.324

>  <ref_pdb>  (379) 
Z3556a

>  <inspiration_score>  (379) 
None

$$$$
P116347
     RDKit          3D

 33 37  0  0  0  0  0  0  0  0999 V2000
   -9.1102    3.8572  -18.6029 C   0  0  0  0  0  0  0  0  0  0  0  0
   -7.9896    4.3012  -17.7112 C   0  0  0  0  0  0  0  0  0  0  0  0
   -8.2562    4.4788  -16.3628 C   0  0  0  0  0  0  0  0  0  0  0  0
   -7.2310    4.9616  -15.5654 C   0  0  0  0  0  0  0  0  0  0  0  0
   -7.5430    5.5508  -14.2733 C   0  0  0  0  0  0  0  0  0  0  0  0
   -7.4846    6.7144  -14.2117 O   0  0  0  0  0  0  0  0  0  0  0  0
   -7.8784    4.5096  -13.1906 N   0  0  0  0  0  0  0  0  0  0  0  0
   -8.1113    4.6653  -11.8329 C   0  0  0  0  0  0  0  0  0  0  0  0
   -8.0755    5.9822  -11.3338 C   0  0  0  0  0  0  0  0  0  0  0  0
   -8.1379    6.2396   -9.9833 C   0  0  0  0  0  0  0  0  0  0  0  0
   -8.2325    5.1525   -9.1536 C   0  0  0  0  0  0  0  0  0  0  0  0
   -8.3460    3.8371   -9.6197 C   0  0  0  0  0  0  0  0  0  0  0  0
   -8.2917    3.5715  -10.9797 C   0  0  0  0  0  0  0  0  0  0  0  0
   -8.4984    2.9145   -8.4397 C   0  0  0  0  0  0  0  0  0  0  0  0
   -8.0767    3.7946   -7.3129 N   0  0  0  0  0  0  0  0  0  0  0  0
   -8.5358    3.6651   -6.0087 C   0  0  0  0  0  0  0  0  0  0  0  0
   -9.8011    3.1896   -5.7125 C   0  0  0  0  0  0  0  0  0  0  0  0
  -10.3100    3.3743   -4.4394 C   0  0  0  0  0  0  0  0  0  0  0  0
   -9.5535    3.9747   -3.4270 C   0  0  0  0  0  0  0  0  0  0  0  0
   -8.2605    4.3897   -3.6873 C   0  0  0  0  0  0  0  0  0  0  0  0
   -7.7620    4.2367   -4.9743 C   0  0  0  0  0  0  0  0  0  0  0  0
   -8.1983    5.2061   -7.6801 C   0  0  0  0  0  0  0  0  0  0  0  0
   -5.9587    5.1783  -16.1061 C   0  0  0  0  0  0  0  0  0  0  0  0
   -4.6895    5.6209  -15.6652 C   0  0  0  0  0  0  0  0  0  0  0  0
   -4.2636    5.9670  -14.2865 C   0  0  0  0  0  0  0  0  0  0  0  0
   -3.8188    5.7136  -16.6761 N   0  0  0  0  0  0  0  0  0  0  0  0
   -4.5482    5.3879  -17.7813 N   0  0  0  0  0  0  0  0  0  0  0  0
   -3.9410    5.6390  -19.0992 C   0  0  0  0  0  0  0  0  0  0  0  0
   -2.5949    4.8922  -19.2057 C   0  0  0  0  0  0  0  0  0  0  0  0
   -4.8279    5.2478  -20.2984 C   0  0  0  0  0  0  0  0  0  0  0  0
   -3.6661    7.1564  -19.2348 C   0  0  0  0  0  0  0  0  0  0  0  0
   -5.8276    4.9872  -17.4700 C   0  0  0  0  0  0  0  0  0  0  0  0
   -6.7970    4.5622  -18.3033 N   0  0  0  0  0  0  0  0  0  0  0  0
  1  2  1  0
  2  3  2  0
  3  4  1  0
  4  5  1  0
  5  6  2  0
  5  7  1  0
  7  8  1  0
  8  9  2  0
  9 10  1  0
 10 11  2  0
 11 12  1  0
 12 13  2  0
 12 14  1  0
 14 15  1  0
 15 16  1  0
 16 17  2  0
 17 18  1  0
 18 19  2  0
 19 20  1  0
 20 21  2  0
 15 22  1  0
  4 23  2  0
 23 24  1  0
 24 25  1  0
 24 26  2  0
 26 27  1  0
 27 28  1  0
 28 29  1  0
 28 30  1  0
 28 31  1  0
 27 32  1  0
 32 33  2  0
 33  2  1  0
 13  8  1  0
 21 16  1  0
 32 23  1  0
 22 11  1  0
M  END
>  <name>  (380) 
P116347

>  <alias>  (380) 
None

>  <smina_score_min>  (380) 
-9.335

>  <exports>  (380) 
['/opt/xchem-fragalysis-2/maxwin/BulkDock/OUTPUTS/openbind_xx01zvns2b_c2_elabs_1LOUTNY.sdf', '/opt/xchem-fragalysis-2/maxwin/BulkDock/OUTPUTS/openbind_xx01zvns2b_c2_elabs_1LSYIIV.sdf']

>  <tags>  (380) 
syndirella_placed,openbind_xx01zvns2b_c2_elabs,openbind_xx01zvns2b_c2_elabs_scored_6.2plus,syndirella_product,openbind_xx01zvns2b_c2_elabs_scored,openbind_xx01zvns2b_c2_elabs_scored_top80percent,BulkDock Fragalysis export

>  <subsites>  (380) 
1 - Z4590/B/203/1

>  <smiles>  (380) 
Cc1cc(C(=O)Nc2ccc3c(c2)CN(c2ccccc2)C3)c2c(C)nn(C(C)(C)C)c2n1

>  <HIPPO Pose ID>  (380) 
116347

>  <energy_score>  (380) 
-58.906277

>  <inchikey>  (380) 
XIHXQIAXHQDTBF-UHFFFAOYSA-N

>  <gnina_score_min>  (380) 
6.382

>  <gnina_score>  (380) 
6.39

>  <ref_mols>  (380) 
Z3556a

>  <HIPPO Compound ID>  (380) 
179681

>  <distance_score>  (380) 
0.909571

>  <rmsd(smina/fragmenstein)>  (380) 
0.264

>  <ref_pdb>  (380) 
Z3556a

>  <inspiration_score>  (380) 
None

$$$$
P116348
     RDKit          3D

 33 37  0  0  0  0  0  0  0  0999 V2000
   -9.1146    3.8773  -18.4455 C   0  0  0  0  0  0  0  0  0  0  0  0
   -7.9871    4.3200  -17.5579 C   0  0  0  0  0  0  0  0  0  0  0  0
   -8.2150    4.4321  -16.1908 C   0  0  0  0  0  0  0  0  0  0  0  0
   -7.1793    4.9062  -15.3922 C   0  0  0  0  0  0  0  0  0  0  0  0
   -7.4703    5.4484  -14.0662 C   0  0  0  0  0  0  0  0  0  0  0  0
   -7.3736    6.6071  -13.9579 O   0  0  0  0  0  0  0  0  0  0  0  0
   -7.8684    4.3766  -13.0302 N   0  0  0  0  0  0  0  0  0  0  0  0
   -8.1297    4.4895  -11.6677 C   0  0  0  0  0  0  0  0  0  0  0  0
   -8.1560    5.7967  -11.1239 C   0  0  0  0  0  0  0  0  0  0  0  0
   -8.3899    6.0201   -9.7790 C   0  0  0  0  0  0  0  0  0  0  0  0
   -8.5906    4.9032   -9.0112 C   0  0  0  0  0  0  0  0  0  0  0  0
   -8.5717    3.6137   -9.5105 C   0  0  0  0  0  0  0  0  0  0  0  0
   -8.3473    3.3676  -10.8560 C   0  0  0  0  0  0  0  0  0  0  0  0
   -8.8246    2.7351   -8.3628 C   0  0  0  0  0  0  0  0  0  0  0  0
   -9.0534    1.5483   -8.4559 O   0  0  0  0  0  0  0  0  0  0  0  0
   -8.8204    3.5411   -7.2513 N   0  0  0  0  0  0  0  0  0  0  0  0
   -8.9910    3.0684   -5.9001 C   0  0  0  0  0  0  0  0  0  0  0  0
   -8.4120    4.0344   -4.8867 C   0  0  0  0  0  0  0  0  0  0  0  0
   -7.1803    3.7079   -4.0846 C   0  0  0  0  0  0  0  0  0  0  0  0
   -7.0930    4.7609   -5.1308 C   0  0  0  0  0  0  0  0  0  0  0  0
   -8.8778    4.8518   -7.5975 C   0  0  0  0  0  0  0  0  0  0  0  0
   -9.1353    5.8465   -6.9443 O   0  0  0  0  0  0  0  0  0  0  0  0
   -5.9340    5.1867  -15.9682 C   0  0  0  0  0  0  0  0  0  0  0  0
   -4.6613    5.6512  -15.5571 C   0  0  0  0  0  0  0  0  0  0  0  0
   -4.1826    5.9297  -14.1807 C   0  0  0  0  0  0  0  0  0  0  0  0
   -3.8452    5.8518  -16.5982 N   0  0  0  0  0  0  0  0  0  0  0  0
   -4.6214    5.5994  -17.6859 N   0  0  0  0  0  0  0  0  0  0  0  0
   -4.2159    6.1153  -19.0054 C   0  0  0  0  0  0  0  0  0  0  0  0
   -5.2385    7.1648  -19.4950 C   0  0  0  0  0  0  0  0  0  0  0  0
   -2.8370    6.8228  -18.9452 C   0  0  0  0  0  0  0  0  0  0  0  0
   -4.0998    4.9951  -20.0392 C   0  0  0  0  0  0  0  0  0  0  0  0
   -5.8504    5.0759  -17.3447 C   0  0  0  0  0  0  0  0  0  0  0  0
   -6.8262    4.6555  -18.1719 N   0  0  0  0  0  0  0  0  0  0  0  0
  1  2  1  0
  2  3  2  0
  3  4  1  0
  4  5  1  0
  5  6  2  0
  5  7  1  0
  7  8  1  0
  8  9  2  0
  9 10  1  0
 10 11  2  0
 11 12  1  0
 12 13  2  0
 12 14  1  0
 14 15  2  0
 14 16  1  0
 16 17  1  0
 17 18  1  0
 18 19  1  0
 19 20  1  0
 16 21  1  0
 21 22  2  0
  4 23  2  0
 23 24  1  0
 24 25  1  0
 24 26  2  0
 26 27  1  0
 27 28  1  0
 28 29  1  0
 28 30  1  0
 28 31  1  0
 27 32  1  0
 32 33  2  0
 33  2  1  0
 13  8  1  0
 20 18  1  0
 32 23  1  0
 21 11  1  0
M  END
>  <name>  (381) 
P116348

>  <alias>  (381) 
None

>  <smina_score_min>  (381) 
-8.691

>  <exports>  (381) 
['/opt/xchem-fragalysis-2/maxwin/BulkDock/OUTPUTS/openbind_xx01zvns2b_c2_elabs_1LOUTNY.sdf', '/opt/xchem-fragalysis-2/maxwin/BulkDock/OUTPUTS/openbind_xx01zvns2b_c2_elabs_1LSYIIV.sdf']

>  <tags>  (381) 
syndirella_placed,openbind_xx01zvns2b_c2_elabs,openbind_xx01zvns2b_c2_elabs_scored_6.2plus,syndirella_product,openbind_xx01zvns2b_c2_elabs_scored,openbind_xx01zvns2b_c2_elabs_scored_top80percent,BulkDock Fragalysis export

>  <subsites>  (381) 
1 - Z4590/B/203/1

>  <smiles>  (381) 
Cc1cc(C(=O)Nc2ccc3c(c2)C(=O)N(CC2CC2)C3=O)c2c(C)nn(C(C)(C)C)c2n1

>  <HIPPO Pose ID>  (381) 
116348

>  <energy_score>  (381) 
-44.587556

>  <inchikey>  (381) 
QQRRKUNBAFSTCG-UHFFFAOYSA-N

>  <gnina_score_min>  (381) 
6.396

>  <gnina_score>  (381) 
6.468

>  <ref_mols>  (381) 
Z3556a

>  <HIPPO Compound ID>  (381) 
179683

>  <distance_score>  (381) 
0.721846

>  <rmsd(smina/fragmenstein)>  (381) 
0.533

>  <ref_pdb>  (381) 
Z3556a

>  <inspiration_score>  (381) 
None

$$$$
P116352
     RDKit          3D

 33 37  0  0  0  0  0  0  0  0999 V2000
   -3.7337    5.0619   -3.2052 C   0  0  0  0  0  0  0  0  0  0  0  0
   -4.9393    5.4266   -4.0481 C   0  0  0  0  0  0  0  0  0  0  0  0
   -5.7175    4.2453   -4.2539 O   0  0  0  0  0  0  0  0  0  0  0  0
   -6.8593    4.5074   -5.0865 C   0  0  0  0  0  0  0  0  0  0  0  0
   -7.8622    3.3759   -4.9405 C   0  0  0  0  0  0  0  0  0  0  0  0
   -9.1576    3.4179   -5.7656 C   0  0  0  0  0  0  0  0  0  0  0  0
   -9.1637    3.8180   -7.1508 N   0  0  0  0  0  0  0  0  0  0  0  0
   -8.8252    5.1914   -7.4585 C   0  0  0  0  0  0  0  0  0  0  0  0
   -8.5318    5.1741   -8.9131 C   0  0  0  0  0  0  0  0  0  0  0  0
   -8.2976    6.2703   -9.7091 C   0  0  0  0  0  0  0  0  0  0  0  0
   -7.9729    6.0416  -11.0358 C   0  0  0  0  0  0  0  0  0  0  0  0
   -7.8802    4.7387  -11.5593 C   0  0  0  0  0  0  0  0  0  0  0  0
   -7.4626    4.6125  -12.8893 N   0  0  0  0  0  0  0  0  0  0  0  0
   -6.9911    5.6877  -13.9033 C   0  0  0  0  0  0  0  0  0  0  0  0
   -6.8053    6.8342  -13.7614 O   0  0  0  0  0  0  0  0  0  0  0  0
   -6.7084    5.1689  -15.2449 C   0  0  0  0  0  0  0  0  0  0  0  0
   -7.7370    4.7574  -16.0924 C   0  0  0  0  0  0  0  0  0  0  0  0
   -7.4721    4.5587  -17.4577 C   0  0  0  0  0  0  0  0  0  0  0  0
   -8.4959    4.0651  -18.4360 C   0  0  0  0  0  0  0  0  0  0  0  0
   -9.4108    2.9710  -17.9961 C   0  0  0  0  0  0  0  0  0  0  0  0
   -9.9630    4.3263  -18.3149 C   0  0  0  0  0  0  0  0  0  0  0  0
   -6.2581    4.7687  -18.0038 N   0  0  0  0  0  0  0  0  0  0  0  0
   -5.3026    5.1330  -17.1455 C   0  0  0  0  0  0  0  0  0  0  0  0
   -5.4345    5.3465  -15.7898 C   0  0  0  0  0  0  0  0  0  0  0  0
   -4.1517    5.7625  -15.3822 C   0  0  0  0  0  0  0  0  0  0  0  0
   -3.2677    5.7923  -16.3890 N   0  0  0  0  0  0  0  0  0  0  0  0
   -4.0033    5.4116  -17.4616 N   0  0  0  0  0  0  0  0  0  0  0  0
   -3.4618    5.4560  -18.8142 C   0  0  0  0  0  0  0  0  0  0  0  0
   -3.3899    6.8990  -19.3152 C   0  0  0  0  0  0  0  0  0  0  0  0
   -2.1031    4.7703  -18.9357 C   0  0  0  0  0  0  0  0  0  0  0  0
   -8.1545    3.6278  -10.7399 C   0  0  0  0  0  0  0  0  0  0  0  0
   -8.4742    3.8651   -9.4008 C   0  0  0  0  0  0  0  0  0  0  0  0
   -8.7556    2.9240   -8.2506 C   0  0  0  0  0  0  0  0  0  0  0  0
  1  2  1  0
  2  3  1  0
  3  4  1  0
  4  5  1  0
  5  6  1  0
  6  7  1  0
  7  8  1  0
  8  9  1  0
  9 10  2  0
 10 11  1  0
 11 12  2  0
 12 13  1  0
 13 14  1  0
 14 15  2  0
 14 16  1  0
 16 17  2  0
 17 18  1  0
 18 19  1  0
 19 20  1  0
 20 21  1  0
 18 22  2  0
 22 23  1  0
 23 24  2  0
 24 25  1  0
 25 26  2  0
 26 27  1  0
 27 28  1  0
 28 29  1  0
 28 30  1  0
 12 31  1  0
 31 32  2  0
 32 33  1  0
 33  7  1  0
 32  9  1  0
 24 16  1  0
 21 19  1  0
 27 23  1  0
M  END
>  <name>  (382) 
P116352

>  <alias>  (382) 
None

>  <smina_score_min>  (382) 
-6.973

>  <exports>  (382) 
['/opt/xchem-fragalysis-2/maxwin/BulkDock/OUTPUTS/openbind_xx01zvns2b_c2_elabs_1LOUTNY.sdf', '/opt/xchem-fragalysis-2/maxwin/BulkDock/OUTPUTS/openbind_xx01zvns2b_c2_elabs_1LSYIIV.sdf']

>  <tags>  (382) 
syndirella_placed,openbind_xx01zvns2b_c2_elabs,openbind_xx01zvns2b_c2_elabs_scored_6.2plus,syndirella_product,openbind_xx01zvns2b_c2_elabs_scored,openbind_xx01zvns2b_c2_elabs_scored_top80percent,BulkDock Fragalysis export

>  <subsites>  (382) 
1 - Z4590/B/203/1

>  <smiles>  (382) 
CCOCCCN1Cc2ccc(NC(=O)c3cc(C4CC4)nc4c3cnn4C(C)C)cc2C1

>  <HIPPO Pose ID>  (382) 
116352

>  <energy_score>  (382) 
-49.453753

>  <inchikey>  (382) 
AKSQTNXHRSEQBZ-UHFFFAOYSA-N

>  <gnina_score_min>  (382) 
6.219

>  <gnina_score>  (382) 
6.279

>  <ref_mols>  (382) 
Z3556a

>  <HIPPO Compound ID>  (382) 
179687

>  <distance_score>  (382) 
0.957657

>  <rmsd(smina/fragmenstein)>  (382) 
1.381

>  <ref_pdb>  (382) 
Z3556a

>  <inspiration_score>  (382) 
None

$$$$
P116359
     RDKit          3D

 33 38  0  0  0  0  0  0  0  0999 V2000
   -9.2702    3.8655  -18.3150 C   0  0  0  0  0  0  0  0  0  0  0  0
   -8.0925    4.3340  -17.5096 C   0  0  0  0  0  0  0  0  0  0  0  0
   -8.2479    4.5629  -16.1426 C   0  0  0  0  0  0  0  0  0  0  0  0
   -7.1663    5.0757  -15.4304 C   0  0  0  0  0  0  0  0  0  0  0  0
   -7.2748    5.5645  -14.0502 C   0  0  0  0  0  0  0  0  0  0  0  0
   -6.8477    6.6310  -13.8398 O   0  0  0  0  0  0  0  0  0  0  0  0
   -7.8598    4.5117  -13.0835 N   0  0  0  0  0  0  0  0  0  0  0  0
   -7.9513    4.5119  -11.6960 C   0  0  0  0  0  0  0  0  0  0  0  0
   -7.4126    5.6141  -10.9921 C   0  0  0  0  0  0  0  0  0  0  0  0
   -7.3080    5.6091   -9.6079 C   0  0  0  0  0  0  0  0  0  0  0  0
   -7.7990    4.5014   -8.9665 C   0  0  0  0  0  0  0  0  0  0  0  0
   -8.4216    3.4622   -9.6313 C   0  0  0  0  0  0  0  0  0  0  0  0
   -8.4870    3.4176  -11.0116 C   0  0  0  0  0  0  0  0  0  0  0  0
   -8.9383    2.5643   -8.6028 C   0  0  0  0  0  0  0  0  0  0  0  0
   -9.5749    1.5623   -8.8421 O   0  0  0  0  0  0  0  0  0  0  0  0
   -8.5900    3.1129   -7.4029 N   0  0  0  0  0  0  0  0  0  0  0  0
   -8.9110    2.5458   -6.1262 C   0  0  0  0  0  0  0  0  0  0  0  0
   -9.9951    3.3467   -5.4680 C   0  0  0  0  0  0  0  0  0  0  0  0
   -9.7141    4.0309   -4.1532 C   0  0  0  0  0  0  0  0  0  0  0  0
   -9.9598    4.8582   -5.3802 C   0  0  0  0  0  0  0  0  0  0  0  0
   -7.7726    4.1882   -7.5536 C   0  0  0  0  0  0  0  0  0  0  0  0
   -7.0894    4.8011   -6.7507 O   0  0  0  0  0  0  0  0  0  0  0  0
   -5.9517    5.2741  -16.0969 C   0  0  0  0  0  0  0  0  0  0  0  0
   -4.6543    5.7420  -15.8019 C   0  0  0  0  0  0  0  0  0  0  0  0
   -3.8516    5.7543  -16.8710 N   0  0  0  0  0  0  0  0  0  0  0  0
   -4.6533    5.2993  -17.8668 N   0  0  0  0  0  0  0  0  0  0  0  0
   -4.1899    5.2454  -19.2323 C   0  0  0  0  0  0  0  0  0  0  0  0
   -4.3814    6.5571  -19.9945 C   0  0  0  0  0  0  0  0  0  0  0  0
   -3.4321    6.4581  -21.1897 C   0  0  0  0  0  0  0  0  0  0  0  0
   -2.4801    5.2984  -20.8931 C   0  0  0  0  0  0  0  0  0  0  0  0
   -2.6977    4.9659  -19.4237 C   0  0  0  0  0  0  0  0  0  0  0  0
   -5.9207    4.9872  -17.4459 C   0  0  0  0  0  0  0  0  0  0  0  0
   -6.9397    4.5303  -18.1939 N   0  0  0  0  0  0  0  0  0  0  0  0
  1  2  1  0
  2  3  2  0
  3  4  1  0
  4  5  1  0
  5  6  2  0
  5  7  1  0
  7  8  1  0
  8  9  2  0
  9 10  1  0
 10 11  2  0
 11 12  1  0
 12 13  2  0
 12 14  1  0
 14 15  2  0
 14 16  1  0
 16 17  1  0
 17 18  1  0
 18 19  1  0
 19 20  1  0
 16 21  1  0
 21 22  2  0
  4 23  2  0
 23 24  1  0
 24 25  2  0
 25 26  1  0
 26 27  1  0
 27 28  1  0
 28 29  1  0
 29 30  1  0
 30 31  1  0
 26 32  1  0
 32 33  2  0
 33  2  1  0
 13  8  1  0
 20 18  1  0
 32 23  1  0
 21 11  1  0
 31 27  1  0
M  END
>  <name>  (383) 
P116359

>  <alias>  (383) 
None

>  <smina_score_min>  (383) 
-8.366

>  <exports>  (383) 
['/opt/xchem-fragalysis-2/maxwin/BulkDock/OUTPUTS/openbind_xx01zvns2b_c2_elabs_1LOUTNY.sdf', '/opt/xchem-fragalysis-2/maxwin/BulkDock/OUTPUTS/openbind_xx01zvns2b_c2_elabs_1LSYIIV.sdf']

>  <tags>  (383) 
syndirella_placed,openbind_xx01zvns2b_c2_elabs,openbind_xx01zvns2b_c2_elabs_scored_6.2plus,syndirella_product,openbind_xx01zvns2b_c2_elabs_scored,openbind_xx01zvns2b_c2_elabs_scored_top80percent,BulkDock Fragalysis export

>  <subsites>  (383) 
1 - Z4590/B/203/1

>  <smiles>  (383) 
Cc1cc(C(=O)Nc2ccc3c(c2)C(=O)N(CC2CC2)C3=O)c2cnn(C3CCCC3)c2n1

>  <HIPPO Pose ID>  (383) 
116359

>  <energy_score>  (383) 
-41.578049

>  <inchikey>  (383) 
CLPRKHFLZKVFDD-UHFFFAOYSA-N

>  <gnina_score_min>  (383) 
6.226

>  <gnina_score>  (383) 
6.374

>  <ref_mols>  (383) 
Z3556a

>  <HIPPO Compound ID>  (383) 
179696

>  <distance_score>  (383) 
0.693581

>  <rmsd(smina/fragmenstein)>  (383) 
0.835

>  <ref_pdb>  (383) 
Z3556a

>  <inspiration_score>  (383) 
None

$$$$
P116360
     RDKit          3D

 33 37  0  0  0  0  0  0  0  0999 V2000
  -11.3023    1.9508   -5.5594 C   0  0  0  0  0  0  0  0  0  0  0  0
  -10.5632    3.2262   -5.2239 C   0  0  0  0  0  0  0  0  0  0  0  0
   -9.0593    2.9926   -5.3063 C   0  0  0  0  0  0  0  0  0  0  0  0
   -8.2999    4.1236   -5.9355 C   0  0  0  0  0  0  0  0  0  0  0  0
   -8.8356    4.4087   -7.2471 N   0  0  0  0  0  0  0  0  0  0  0  0
   -8.3515    5.7029   -7.6947 C   0  0  0  0  0  0  0  0  0  0  0  0
   -8.2807    5.5676   -9.1613 C   0  0  0  0  0  0  0  0  0  0  0  0
   -8.0845    6.5917  -10.0475 C   0  0  0  0  0  0  0  0  0  0  0  0
   -7.9606    6.2461  -11.3747 C   0  0  0  0  0  0  0  0  0  0  0  0
   -8.0314    4.9045  -11.7985 C   0  0  0  0  0  0  0  0  0  0  0  0
   -7.8033    4.6679  -13.1462 N   0  0  0  0  0  0  0  0  0  0  0  0
   -7.3774    5.6287  -14.2727 C   0  0  0  0  0  0  0  0  0  0  0  0
   -7.2251    6.7860  -14.2633 O   0  0  0  0  0  0  0  0  0  0  0  0
   -7.1761    4.9759  -15.5568 C   0  0  0  0  0  0  0  0  0  0  0  0
   -8.2732    4.5167  -16.2728 C   0  0  0  0  0  0  0  0  0  0  0  0
   -8.1083    4.2838  -17.6287 C   0  0  0  0  0  0  0  0  0  0  0  0
   -9.2958    3.8624  -18.4419 C   0  0  0  0  0  0  0  0  0  0  0  0
   -6.9433    4.4513  -18.2945 N   0  0  0  0  0  0  0  0  0  0  0  0
   -5.8984    4.8619  -17.5426 C   0  0  0  0  0  0  0  0  0  0  0  0
   -5.9312    5.1043  -16.1817 C   0  0  0  0  0  0  0  0  0  0  0  0
   -4.6099    5.4654  -15.8328 C   0  0  0  0  0  0  0  0  0  0  0  0
   -4.0779    5.8241  -14.4942 C   0  0  0  0  0  0  0  0  0  0  0  0
   -3.7872    5.4217  -16.8862 N   0  0  0  0  0  0  0  0  0  0  0  0
   -4.6006    5.1447  -17.9520 N   0  0  0  0  0  0  0  0  0  0  0  0
   -4.0782    5.2120  -19.2759 C   0  0  0  0  0  0  0  0  0  0  0  0
   -4.9235    5.2636  -20.3921 C   0  0  0  0  0  0  0  0  0  0  0  0
   -4.3883    5.3651  -21.6786 C   0  0  0  0  0  0  0  0  0  0  0  0
   -3.0082    5.3889  -21.8639 C   0  0  0  0  0  0  0  0  0  0  0  0
   -2.1602    5.3303  -20.7600 C   0  0  0  0  0  0  0  0  0  0  0  0
   -2.6894    5.2561  -19.4693 C   0  0  0  0  0  0  0  0  0  0  0  0
   -8.2729    3.8714  -10.8871 C   0  0  0  0  0  0  0  0  0  0  0  0
   -8.3917    4.2296   -9.5519 C   0  0  0  0  0  0  0  0  0  0  0  0
   -8.5832    3.4015   -8.3153 C   0  0  0  0  0  0  0  0  0  0  0  0
  1  2  1  0
  2  3  1  0
  3  4  1  0
  4  5  1  0
  5  6  1  0
  6  7  1  0
  7  8  2  0
  8  9  1  0
  9 10  2  0
 10 11  1  0
 11 12  1  0
 12 13  2  0
 12 14  1  0
 14 15  2  0
 15 16  1  0
 16 17  1  0
 16 18  2  0
 18 19  1  0
 19 20  2  0
 20 21  1  0
 21 22  1  0
 21 23  2  0
 23 24  1  0
 24 25  1  0
 25 26  2  0
 26 27  1  0
 27 28  2  0
 28 29  1  0
 29 30  2  0
 10 31  1  0
 31 32  2  0
 32 33  1  0
 33  5  1  0
 32  7  1  0
 20 14  1  0
 30 25  1  0
 24 19  1  0
M  END
>  <name>  (384) 
P116360

>  <alias>  (384) 
None

>  <smina_score_min>  (384) 
-8.822

>  <exports>  (384) 
['/opt/xchem-fragalysis-2/maxwin/BulkDock/OUTPUTS/openbind_xx01zvns2b_c2_elabs_1LOUTNY.sdf', '/opt/xchem-fragalysis-2/maxwin/BulkDock/OUTPUTS/openbind_xx01zvns2b_c2_elabs_1LSYIIV.sdf']

>  <tags>  (384) 
syndirella_placed,openbind_xx01zvns2b_c2_elabs,openbind_xx01zvns2b_c2_elabs_scored_6.2plus,syndirella_product,openbind_xx01zvns2b_c2_elabs_scored,openbind_xx01zvns2b_c2_elabs_scored_top80percent,BulkDock Fragalysis export

>  <subsites>  (384) 
1 - Z4590/B/203/1

>  <smiles>  (384) 
CCCCN1Cc2ccc(NC(=O)c3cc(C)nc4c3c(C)nn4-c3ccccc3)cc2C1

>  <HIPPO Pose ID>  (384) 
116360

>  <energy_score>  (384) 
-46.380393

>  <inchikey>  (384) 
HYXCOSNKGBDYBL-UHFFFAOYSA-N

>  <gnina_score_min>  (384) 
6.415

>  <gnina_score>  (384) 
6.378

>  <ref_mols>  (384) 
Z3556a

>  <HIPPO Compound ID>  (384) 
179697

>  <distance_score>  (384) 
1.093546

>  <rmsd(smina/fragmenstein)>  (384) 
0.435

>  <ref_pdb>  (384) 
Z3556a

>  <inspiration_score>  (384) 
None

$$$$
P116361
     RDKit          3D

 33 37  0  0  0  0  0  0  0  0999 V2000
   -9.2965    3.9155  -18.2855 C   0  0  0  0  0  0  0  0  0  0  0  0
   -8.1069    4.3618  -17.4856 C   0  0  0  0  0  0  0  0  0  0  0  0
   -8.2419    4.5831  -16.1220 C   0  0  0  0  0  0  0  0  0  0  0  0
   -7.1338    5.0402  -15.4120 C   0  0  0  0  0  0  0  0  0  0  0  0
   -7.2789    5.5159  -14.0327 C   0  0  0  0  0  0  0  0  0  0  0  0
   -7.0302    6.6355  -13.8177 O   0  0  0  0  0  0  0  0  0  0  0  0
   -7.7704    4.4019  -13.0875 N   0  0  0  0  0  0  0  0  0  0  0  0
   -7.9621    4.4052  -11.7099 C   0  0  0  0  0  0  0  0  0  0  0  0
   -7.8260    5.6060  -10.9879 C   0  0  0  0  0  0  0  0  0  0  0  0
   -8.0118    5.6413   -9.6092 C   0  0  0  0  0  0  0  0  0  0  0  0
   -8.3500    4.4623   -8.9841 C   0  0  0  0  0  0  0  0  0  0  0  0
   -8.4943    3.2650   -9.6917 C   0  0  0  0  0  0  0  0  0  0  0  0
   -8.2930    3.2141  -11.0586 C   0  0  0  0  0  0  0  0  0  0  0  0
   -8.8916    2.1879   -8.7286 C   0  0  0  0  0  0  0  0  0  0  0  0
   -9.4018    2.9586   -7.5760 N   0  0  0  0  0  0  0  0  0  0  0  0
   -9.3854    2.2328   -6.3121 C   0  0  0  0  0  0  0  0  0  0  0  0
   -9.7655    3.0793   -5.0873 C   0  0  0  0  0  0  0  0  0  0  0  0
   -8.7631    3.9326   -4.7455 F   0  0  0  0  0  0  0  0  0  0  0  0
  -10.8496    3.8531   -5.3549 F   0  0  0  0  0  0  0  0  0  0  0  0
   -8.6375    4.2150   -7.5440 C   0  0  0  0  0  0  0  0  0  0  0  0
   -5.9063    5.1867  -16.0686 C   0  0  0  0  0  0  0  0  0  0  0  0
   -4.5712    5.5240  -15.7457 C   0  0  0  0  0  0  0  0  0  0  0  0
   -3.9996    5.8574  -14.4165 C   0  0  0  0  0  0  0  0  0  0  0  0
   -3.7720    5.4836  -16.8173 N   0  0  0  0  0  0  0  0  0  0  0  0
   -4.6045    5.2066  -17.8665 N   0  0  0  0  0  0  0  0  0  0  0  0
   -4.1018    5.2438  -19.1999 C   0  0  0  0  0  0  0  0  0  0  0  0
   -4.9627    5.2904  -20.3048 C   0  0  0  0  0  0  0  0  0  0  0  0
   -4.4457    5.3551  -21.6014 C   0  0  0  0  0  0  0  0  0  0  0  0
   -3.0683    5.3506  -21.8069 C   0  0  0  0  0  0  0  0  0  0  0  0
   -2.2051    5.2999  -20.7145 C   0  0  0  0  0  0  0  0  0  0  0  0
   -2.7157    5.2599  -19.4147 C   0  0  0  0  0  0  0  0  0  0  0  0
   -5.8998    4.9476  -17.4330 C   0  0  0  0  0  0  0  0  0  0  0  0
   -6.9577    4.5413  -18.1699 N   0  0  0  0  0  0  0  0  0  0  0  0
  1  2  1  0
  2  3  2  0
  3  4  1  0
  4  5  1  0
  5  6  2  0
  5  7  1  0
  7  8  1  0
  8  9  2  0
  9 10  1  0
 10 11  2  0
 11 12  1  0
 12 13  2  0
 12 14  1  0
 14 15  1  0
 15 16  1  0
 16 17  1  0
 17 18  1  0
 17 19  1  0
 15 20  1  0
  4 21  2  0
 21 22  1  0
 22 23  1  0
 22 24  2  0
 24 25  1  0
 25 26  1  0
 26 27  2  0
 27 28  1  0
 28 29  2  0
 29 30  1  0
 30 31  2  0
 25 32  1  0
 32 33  2  0
 33  2  1  0
 13  8  1  0
 32 21  1  0
 20 11  1  0
 31 26  1  0
M  END
>  <name>  (385) 
P116361

>  <alias>  (385) 
None

>  <smina_score_min>  (385) 
-9.681

>  <exports>  (385) 
['/opt/xchem-fragalysis-2/maxwin/BulkDock/OUTPUTS/openbind_xx01zvns2b_c2_elabs_1LOUTNY.sdf', '/opt/xchem-fragalysis-2/maxwin/BulkDock/OUTPUTS/openbind_xx01zvns2b_c2_elabs_1LSYIIV.sdf']

>  <tags>  (385) 
syndirella_placed,openbind_xx01zvns2b_c2_elabs,openbind_xx01zvns2b_c2_elabs_scored_6.2plus,syndirella_product,openbind_xx01zvns2b_c2_elabs_scored,openbind_xx01zvns2b_c2_elabs_scored_top80percent,BulkDock Fragalysis export

>  <subsites>  (385) 
1 - Z4590/B/203/1

>  <smiles>  (385) 
Cc1cc(C(=O)Nc2ccc3c(c2)CN(CC(F)F)C3)c2c(C)nn(-c3ccccc3)c2n1

>  <HIPPO Pose ID>  (385) 
116361

>  <energy_score>  (385) 
-37.313279

>  <inchikey>  (385) 
WXWUQIFCYVSULQ-UHFFFAOYSA-N

>  <gnina_score_min>  (385) 
6.524

>  <gnina_score>  (385) 
6.411

>  <ref_mols>  (385) 
Z3556a

>  <HIPPO Compound ID>  (385) 
179698

>  <distance_score>  (385) 
0.557334

>  <rmsd(smina/fragmenstein)>  (385) 
0.539

>  <ref_pdb>  (385) 
Z3556a

>  <inspiration_score>  (385) 
None

$$$$
P116362
     RDKit          3D

 33 37  0  0  0  0  0  0  0  0999 V2000
   -9.3173    3.8923  -18.2484 C   0  0  0  0  0  0  0  0  0  0  0  0
   -8.1360    4.3326  -17.4324 C   0  0  0  0  0  0  0  0  0  0  0  0
   -8.2763    4.5360  -16.0650 C   0  0  0  0  0  0  0  0  0  0  0  0
   -7.1737    4.9908  -15.3445 C   0  0  0  0  0  0  0  0  0  0  0  0
   -7.3254    5.5059  -13.9774 C   0  0  0  0  0  0  0  0  0  0  0  0
   -7.0174    6.6196  -13.8053 O   0  0  0  0  0  0  0  0  0  0  0  0
   -7.8726    4.4535  -12.9870 N   0  0  0  0  0  0  0  0  0  0  0  0
   -8.0594    4.5198  -11.6069 C   0  0  0  0  0  0  0  0  0  0  0  0
   -7.8150    5.7447  -10.9496 C   0  0  0  0  0  0  0  0  0  0  0  0
   -7.9494    5.8759   -9.5702 C   0  0  0  0  0  0  0  0  0  0  0  0
   -8.3514    4.7666   -8.8648 C   0  0  0  0  0  0  0  0  0  0  0  0
   -8.6221    3.5629   -9.5134 C   0  0  0  0  0  0  0  0  0  0  0  0
   -8.4720    3.4000  -10.8820 C   0  0  0  0  0  0  0  0  0  0  0  0
   -9.1061    2.6238   -8.4936 C   0  0  0  0  0  0  0  0  0  0  0  0
   -9.4234    1.4746   -8.7111 O   0  0  0  0  0  0  0  0  0  0  0  0
   -9.1543    3.3211   -7.2887 N   0  0  0  0  0  0  0  0  0  0  0  0
   -9.3953    2.6735   -6.0069 C   0  0  0  0  0  0  0  0  0  0  0  0
   -9.2019    3.6077   -4.8066 C   0  0  0  0  0  0  0  0  0  0  0  0
  -10.7924    2.0623   -5.9452 C   0  0  0  0  0  0  0  0  0  0  0  0
   -8.5642    4.6322   -7.4036 C   0  0  0  0  0  0  0  0  0  0  0  0
   -5.9427    5.1459  -16.0001 C   0  0  0  0  0  0  0  0  0  0  0  0
   -4.6081    5.4875  -15.6742 C   0  0  0  0  0  0  0  0  0  0  0  0
   -4.0352    5.8064  -14.3420 C   0  0  0  0  0  0  0  0  0  0  0  0
   -3.8078    5.4644  -16.7455 N   0  0  0  0  0  0  0  0  0  0  0  0
   -4.6371    5.1913  -17.7981 N   0  0  0  0  0  0  0  0  0  0  0  0
   -4.1281    5.2296  -19.1296 C   0  0  0  0  0  0  0  0  0  0  0  0
   -4.9825    5.2536  -20.2400 C   0  0  0  0  0  0  0  0  0  0  0  0
   -4.4584    5.3139  -21.5341 C   0  0  0  0  0  0  0  0  0  0  0  0
   -3.0800    5.3279  -21.7319 C   0  0  0  0  0  0  0  0  0  0  0  0
   -2.2225    5.2990  -20.6341 C   0  0  0  0  0  0  0  0  0  0  0  0
   -2.7407    5.2635  -19.3371 C   0  0  0  0  0  0  0  0  0  0  0  0
   -5.9316    4.9253  -17.3674 C   0  0  0  0  0  0  0  0  0  0  0  0
   -6.9862    4.5280  -18.1100 N   0  0  0  0  0  0  0  0  0  0  0  0
  1  2  1  0
  2  3  2  0
  3  4  1  0
  4  5  1  0
  5  6  2  0
  5  7  1  0
  7  8  1  0
  8  9  2  0
  9 10  1  0
 10 11  2  0
 11 12  1  0
 12 13  2  0
 12 14  1  0
 14 15  2  0
 14 16  1  0
 16 17  1  0
 17 18  1  0
 17 19  1  0
 16 20  1  0
  4 21  2  0
 21 22  1  0
 22 23  1  0
 22 24  2  0
 24 25  1  0
 25 26  1  0
 26 27  2  0
 27 28  1  0
 28 29  2  0
 29 30  1  0
 30 31  2  0
 25 32  1  0
 32 33  2  0
 33  2  1  0
 13  8  1  0
 32 21  1  0
 20 11  1  0
 31 26  1  0
M  END
>  <name>  (386) 
P116362

>  <alias>  (386) 
None

>  <smina_score_min>  (386) 
-9.808

>  <exports>  (386) 
['/opt/xchem-fragalysis-2/maxwin/BulkDock/OUTPUTS/openbind_xx01zvns2b_c2_elabs_1LOUTNY.sdf', '/opt/xchem-fragalysis-2/maxwin/BulkDock/OUTPUTS/openbind_xx01zvns2b_c2_elabs_1LSYIIV.sdf']

>  <tags>  (386) 
syndirella_placed,openbind_xx01zvns2b_c2_elabs,openbind_xx01zvns2b_c2_elabs_scored_6.2plus,syndirella_product,openbind_xx01zvns2b_c2_elabs_scored,openbind_xx01zvns2b_c2_elabs_scored_top80percent,BulkDock Fragalysis export

>  <subsites>  (386) 
1 - Z4590/B/203/1

>  <smiles>  (386) 
Cc1cc(C(=O)Nc2ccc3c(c2)C(=O)N(C(C)C)C3)c2c(C)nn(-c3ccccc3)c2n1

>  <HIPPO Pose ID>  (386) 
116362

>  <energy_score>  (386) 
-55.71504

>  <inchikey>  (386) 
IHLIMIHADXJDTL-UHFFFAOYSA-N

>  <gnina_score_min>  (386) 
6.383

>  <gnina_score>  (386) 
6.394

>  <ref_mols>  (386) 
Z3556a

>  <HIPPO Compound ID>  (386) 
179699

>  <distance_score>  (386) 
0.597622

>  <rmsd(smina/fragmenstein)>  (386) 
0.483

>  <ref_pdb>  (386) 
Z3556a

>  <inspiration_score>  (386) 
None

$$$$
P116363
     RDKit          3D

 33 36  0  0  0  0  0  0  0  0999 V2000
   -7.2217    6.3933   -2.3664 C   0  0  0  0  0  0  0  0  0  0  0  0
   -8.0421    5.1182   -2.2893 C   0  0  0  0  0  0  0  0  0  0  0  0
   -9.2528    5.2527   -3.0295 O   0  0  0  0  0  0  0  0  0  0  0  0
   -9.1299    4.9498   -4.4242 C   0  0  0  0  0  0  0  0  0  0  0  0
   -9.1038    3.4446   -4.6666 C   0  0  0  0  0  0  0  0  0  0  0  0
   -9.5599    2.9612   -6.0549 C   0  0  0  0  0  0  0  0  0  0  0  0
   -8.6305    3.3020   -7.1211 N   0  0  0  0  0  0  0  0  0  0  0  0
   -8.5660    4.7264   -7.4290 C   0  0  0  0  0  0  0  0  0  0  0  0
   -8.3701    4.8035   -8.8948 C   0  0  0  0  0  0  0  0  0  0  0  0
   -8.1173    5.9356   -9.6332 C   0  0  0  0  0  0  0  0  0  0  0  0
   -7.9500    5.7794  -10.9984 C   0  0  0  0  0  0  0  0  0  0  0  0
   -8.0277    4.5115  -11.6049 C   0  0  0  0  0  0  0  0  0  0  0  0
   -7.7595    4.4269  -12.9688 N   0  0  0  0  0  0  0  0  0  0  0  0
   -7.4385    5.5318  -13.9978 C   0  0  0  0  0  0  0  0  0  0  0  0
   -7.4240    6.6939  -13.8814 O   0  0  0  0  0  0  0  0  0  0  0  0
   -7.0583    5.0102  -15.3091 C   0  0  0  0  0  0  0  0  0  0  0  0
   -8.0038    4.4709  -16.1740 C   0  0  0  0  0  0  0  0  0  0  0  0
   -7.6406    4.2713  -17.5080 C   0  0  0  0  0  0  0  0  0  0  0  0
   -8.6197    3.7172  -18.5216 C   0  0  0  0  0  0  0  0  0  0  0  0
   -9.5681    4.8040  -18.9169 C   0  0  0  0  0  0  0  0  0  0  0  0
   -9.4351    2.5429  -18.0615 C   0  0  0  0  0  0  0  0  0  0  0  0
   -6.4488    4.6478  -18.0376 N   0  0  0  0  0  0  0  0  0  0  0  0
   -5.5735    5.1411  -17.1486 C   0  0  0  0  0  0  0  0  0  0  0  0
   -5.7831    5.3103  -15.7944 C   0  0  0  0  0  0  0  0  0  0  0  0
   -4.5719    5.8365  -15.3097 C   0  0  0  0  0  0  0  0  0  0  0  0
   -3.6605    6.0054  -16.2725 N   0  0  0  0  0  0  0  0  0  0  0  0
   -4.3285    5.6630  -17.4046 N   0  0  0  0  0  0  0  0  0  0  0  0
   -3.8348    6.0800  -18.7135 C   0  0  0  0  0  0  0  0  0  0  0  0
   -3.5007    4.9067  -19.6161 C   0  0  0  0  0  0  0  0  0  0  0  0
   -2.6358    7.0357  -18.6407 C   0  0  0  0  0  0  0  0  0  0  0  0
   -8.3201    3.3731  -10.8417 C   0  0  0  0  0  0  0  0  0  0  0  0
   -8.4959    3.5421   -9.4737 C   0  0  0  0  0  0  0  0  0  0  0  0
   -8.8582    2.5627   -8.3935 C   0  0  0  0  0  0  0  0  0  0  0  0
  1  2  1  0
  2  3  1  0
  3  4  1  0
  4  5  1  0
  5  6  1  0
  6  7  1  0
  7  8  1  0
  8  9  1  0
  9 10  2  0
 10 11  1  0
 11 12  2  0
 12 13  1  0
 13 14  1  0
 14 15  2  0
 14 16  1  0
 16 17  2  0
 17 18  1  0
 18 19  1  0
 19 20  1  0
 19 21  1  0
 18 22  2  0
 22 23  1  0
 23 24  2  0
 24 25  1  0
 25 26  2  0
 26 27  1  0
 27 28  1  0
 28 29  1  0
 28 30  1  0
 12 31  1  0
 31 32  2  0
 32 33  1  0
 33  7  1  0
 32  9  1  0
 24 16  1  0
 27 23  1  0
M  END
>  <name>  (387) 
P116363

>  <alias>  (387) 
None

>  <smina_score_min>  (387) 
-6.229

>  <exports>  (387) 
['/opt/xchem-fragalysis-2/maxwin/BulkDock/OUTPUTS/openbind_xx01zvns2b_c2_elabs_1LOUTNY.sdf', '/opt/xchem-fragalysis-2/maxwin/BulkDock/OUTPUTS/openbind_xx01zvns2b_c2_elabs_1LSYIIV.sdf']

>  <tags>  (387) 
syndirella_placed,openbind_xx01zvns2b_c2_elabs,openbind_xx01zvns2b_c2_elabs_scored_6.2plus,syndirella_product,openbind_xx01zvns2b_c2_elabs_scored,openbind_xx01zvns2b_c2_elabs_scored_top80percent,BulkDock Fragalysis export

>  <subsites>  (387) 
1 - Z4590/B/203/1

>  <smiles>  (387) 
CCOCCCN1Cc2ccc(NC(=O)c3cc(C(C)C)nc4c3cnn4C(C)C)cc2C1

>  <HIPPO Pose ID>  (387) 
116363

>  <energy_score>  (387) 
-58.214109

>  <inchikey>  (387) 
GTLAAXZRIZDNCK-UHFFFAOYSA-N

>  <gnina_score_min>  (387) 
6.289

>  <gnina_score>  (387) 
6.223

>  <ref_mols>  (387) 
Z3556a

>  <HIPPO Compound ID>  (387) 
179701

>  <distance_score>  (387) 
0.746039

>  <rmsd(smina/fragmenstein)>  (387) 
0.746

>  <ref_pdb>  (387) 
Z3556a

>  <inspiration_score>  (387) 
None

$$$$
P116364
     RDKit          3D

 33 37  0  0  0  0  0  0  0  0999 V2000
   -9.4472    2.5621  -17.9829 C   0  0  0  0  0  0  0  0  0  0  0  0
   -9.2307    4.0303  -17.8470 C   0  0  0  0  0  0  0  0  0  0  0  0
   -9.2681    4.6114  -19.2118 C   0  0  0  0  0  0  0  0  0  0  0  0
   -7.9281    4.3647  -17.1602 C   0  0  0  0  0  0  0  0  0  0  0  0
   -7.9981    4.6282  -15.8070 C   0  0  0  0  0  0  0  0  0  0  0  0
   -6.8638    5.1212  -15.1867 C   0  0  0  0  0  0  0  0  0  0  0  0
   -7.0186    5.7178  -13.8745 C   0  0  0  0  0  0  0  0  0  0  0  0
   -6.7730    6.8529  -13.7622 O   0  0  0  0  0  0  0  0  0  0  0  0
   -7.5967    4.7145  -12.8567 N   0  0  0  0  0  0  0  0  0  0  0  0
   -7.8926    4.8664  -11.5185 C   0  0  0  0  0  0  0  0  0  0  0  0
   -7.8406    6.1714  -10.9992 C   0  0  0  0  0  0  0  0  0  0  0  0
   -8.0009    6.4025   -9.6545 C   0  0  0  0  0  0  0  0  0  0  0  0
   -8.1857    5.2990   -8.8615 C   0  0  0  0  0  0  0  0  0  0  0  0
   -8.3111    3.9961   -9.3613 C   0  0  0  0  0  0  0  0  0  0  0  0
   -8.1884    3.7598  -10.7164 C   0  0  0  0  0  0  0  0  0  0  0  0
   -8.5265    3.0510   -8.2112 C   0  0  0  0  0  0  0  0  0  0  0  0
   -8.0747    3.8895   -7.0657 N   0  0  0  0  0  0  0  0  0  0  0  0
   -8.5139    3.7236   -5.7598 C   0  0  0  0  0  0  0  0  0  0  0  0
   -7.7212    4.2583   -4.7201 C   0  0  0  0  0  0  0  0  0  0  0  0
   -8.2108    4.3994   -3.4284 C   0  0  0  0  0  0  0  0  0  0  0  0
   -9.5111    4.0074   -3.1696 C   0  0  0  0  0  0  0  0  0  0  0  0
  -10.2809    3.4380   -4.1896 C   0  0  0  0  0  0  0  0  0  0  0  0
   -9.7838    3.2633   -5.4667 C   0  0  0  0  0  0  0  0  0  0  0  0
   -8.2210    5.3117   -7.3877 C   0  0  0  0  0  0  0  0  0  0  0  0
   -5.6846    5.2820  -15.9060 C   0  0  0  0  0  0  0  0  0  0  0  0
   -4.3769    5.7328  -15.6769 C   0  0  0  0  0  0  0  0  0  0  0  0
   -3.6264    5.6957  -16.7788 N   0  0  0  0  0  0  0  0  0  0  0  0
   -4.4912    5.2930  -17.7518 N   0  0  0  0  0  0  0  0  0  0  0  0
   -4.0107    5.2579  -19.1310 C   0  0  0  0  0  0  0  0  0  0  0  0
   -5.0985    5.1371  -20.2041 C   0  0  0  0  0  0  0  0  0  0  0  0
   -3.1545    6.4915  -19.4639 C   0  0  0  0  0  0  0  0  0  0  0  0
   -5.7321    4.9697  -17.2526 C   0  0  0  0  0  0  0  0  0  0  0  0
   -6.8083    4.5009  -17.9146 N   0  0  0  0  0  0  0  0  0  0  0  0
  1  2  1  0
  2  3  1  0
  2  4  1  0
  4  5  2  0
  5  6  1  0
  6  7  1  0
  7  8  2  0
  7  9  1  0
  9 10  1  0
 10 11  2  0
 11 12  1  0
 12 13  2  0
 13 14  1  0
 14 15  2  0
 14 16  1  0
 16 17  1  0
 17 18  1  0
 18 19  2  0
 19 20  1  0
 20 21  2  0
 21 22  1  0
 22 23  2  0
 17 24  1  0
  6 25  2  0
 25 26  1  0
 26 27  2  0
 27 28  1  0
 28 29  1  0
 29 30  1  0
 29 31  1  0
 28 32  1  0
 32 33  2  0
 33  4  1  0
 15 10  1  0
 23 18  1  0
 32 25  1  0
 24 13  1  0
M  END
>  <name>  (388) 
P116364

>  <alias>  (388) 
None

>  <smina_score_min>  (388) 
-7.634

>  <exports>  (388) 
['/opt/xchem-fragalysis-2/maxwin/BulkDock/OUTPUTS/openbind_xx01zvns2b_c2_elabs_1LOUTNY.sdf', '/opt/xchem-fragalysis-2/maxwin/BulkDock/OUTPUTS/openbind_xx01zvns2b_c2_elabs_1LSYIIV.sdf']

>  <tags>  (388) 
syndirella_placed,openbind_xx01zvns2b_c2_elabs,openbind_xx01zvns2b_c2_elabs_scored_6.2plus,syndirella_product,openbind_xx01zvns2b_c2_elabs_scored,openbind_xx01zvns2b_c2_elabs_scored_top80percent,BulkDock Fragalysis export

>  <subsites>  (388) 
1 - Z4590/B/203/1

>  <smiles>  (388) 
CC(C)c1cc(C(=O)Nc2ccc3c(c2)CN(c2ccccc2)C3)c2cnn(C(C)C)c2n1

>  <HIPPO Pose ID>  (388) 
116364

>  <energy_score>  (388) 
-24.984068

>  <inchikey>  (388) 
RVLWAEXYRREWLT-UHFFFAOYSA-N

>  <gnina_score_min>  (388) 
6.327

>  <gnina_score>  (388) 
6.07

>  <ref_mols>  (388) 
Z3556a

>  <HIPPO Compound ID>  (388) 
179702

>  <distance_score>  (388) 
0.924298

>  <rmsd(smina/fragmenstein)>  (388) 
1.216

>  <ref_pdb>  (388) 
Z3556a

>  <inspiration_score>  (388) 
None

$$$$
P116367
     RDKit          3D

 33 37  0  0  0  0  0  0  0  0999 V2000
  -11.4259    1.7260   -5.6600 C   0  0  0  0  0  0  0  0  0  0  0  0
  -10.3786    2.5148   -6.3941 C   0  0  0  0  0  0  0  0  0  0  0  0
  -10.2811    3.8400   -5.8836 O   0  0  0  0  0  0  0  0  0  0  0  0
   -9.5751    3.9641   -4.6579 C   0  0  0  0  0  0  0  0  0  0  0  0
   -8.0881    3.6576   -4.7400 C   0  0  0  0  0  0  0  0  0  0  0  0
   -7.2630    4.7122   -5.4511 C   0  0  0  0  0  0  0  0  0  0  0  0
   -7.4563    4.9170   -6.8533 N   0  0  0  0  0  0  0  0  0  0  0  0
   -8.4002    5.9410   -7.2652 C   0  0  0  0  0  0  0  0  0  0  0  0
   -8.2875    5.8574   -8.7473 C   0  0  0  0  0  0  0  0  0  0  0  0
   -8.4775    6.8652   -9.6600 C   0  0  0  0  0  0  0  0  0  0  0  0
   -8.0490    6.6288  -10.9557 C   0  0  0  0  0  0  0  0  0  0  0  0
   -7.5218    5.3800  -11.3256 C   0  0  0  0  0  0  0  0  0  0  0  0
   -7.1097    5.2034  -12.6306 N   0  0  0  0  0  0  0  0  0  0  0  0
   -6.7187    6.2397  -13.7088 C   0  0  0  0  0  0  0  0  0  0  0  0
   -6.6096    7.3996  -13.6391 O   0  0  0  0  0  0  0  0  0  0  0  0
   -6.5708    5.5951  -15.0090 C   0  0  0  0  0  0  0  0  0  0  0  0
   -7.7038    5.0243  -15.5882 C   0  0  0  0  0  0  0  0  0  0  0  0
   -9.1909    5.0020  -14.7093 Cl  0  0  0  0  0  0  0  0  0  0  0  0
   -7.6354    4.5061  -16.8829 C   0  0  0  0  0  0  0  0  0  0  0  0
   -8.8008    3.7292  -17.4242 C   0  0  0  0  0  0  0  0  0  0  0  0
   -8.7974    3.2007  -18.8207 C   0  0  0  0  0  0  0  0  0  0  0  0
   -9.7414    4.2950  -18.4425 C   0  0  0  0  0  0  0  0  0  0  0  0
   -6.5192    4.6095  -17.6481 N   0  0  0  0  0  0  0  0  0  0  0  0
   -5.4604    5.1701  -17.0407 C   0  0  0  0  0  0  0  0  0  0  0  0
   -5.3957    5.6581  -15.7472 C   0  0  0  0  0  0  0  0  0  0  0  0
   -4.0644    6.1114  -15.5924 C   0  0  0  0  0  0  0  0  0  0  0  0
   -3.4390    6.7350  -14.3990 C   0  0  0  0  0  0  0  0  0  0  0  0
   -3.3436    5.9228  -16.7075 N   0  0  0  0  0  0  0  0  0  0  0  0
   -4.2243    5.3825  -17.5775 N   0  0  0  0  0  0  0  0  0  0  0  0
   -3.8132    5.1173  -18.9316 C   0  0  0  0  0  0  0  0  0  0  0  0
   -7.4559    4.3173  -10.4273 C   0  0  0  0  0  0  0  0  0  0  0  0
   -7.7728    4.6096   -9.1161 C   0  0  0  0  0  0  0  0  0  0  0  0
   -7.4311    3.8580   -7.8658 C   0  0  0  0  0  0  0  0  0  0  0  0
  1  2  1  0
  2  3  1  0
  3  4  1  0
  4  5  1  0
  5  6  1  0
  6  7  1  0
  7  8  1  0
  8  9  1  0
  9 10  2  0
 10 11  1  0
 11 12  2  0
 12 13  1  0
 13 14  1  0
 14 15  2  0
 14 16  1  0
 16 17  2  0
 17 18  1  0
 17 19  1  0
 19 20  1  0
 20 21  1  0
 21 22  1  0
 19 23  2  0
 23 24  1  0
 24 25  2  0
 25 26  1  0
 26 27  1  0
 26 28  2  0
 28 29  1  0
 29 30  1  0
 12 31  1  0
 31 32  2  0
 32 33  1  0
 33  7  1  0
 32  9  1  0
 25 16  1  0
 22 20  1  0
 29 24  1  0
M  END
>  <name>  (389) 
P116367

>  <alias>  (389) 
None

>  <smina_score_min>  (389) 
-6.096

>  <exports>  (389) 
['/opt/xchem-fragalysis-2/maxwin/BulkDock/OUTPUTS/openbind_xx01zvns2b_c2_elabs_1LOUTNY.sdf', '/opt/xchem-fragalysis-2/maxwin/BulkDock/OUTPUTS/openbind_xx01zvns2b_c2_elabs_1LSYIIV.sdf']

>  <tags>  (389) 
syndirella_placed,openbind_xx01zvns2b_c2_elabs,openbind_xx01zvns2b_c2_elabs_scored_6.2plus,syndirella_product,openbind_xx01zvns2b_c2_elabs_scored,openbind_xx01zvns2b_c2_elabs_scored_top80percent,BulkDock Fragalysis export

>  <subsites>  (389) 
1 - Z4590/B/203/1

>  <smiles>  (389) 
CCOCCCN1Cc2ccc(NC(=O)c3c(Cl)c(C4CC4)nc4c3c(C)nn4C)cc2C1

>  <HIPPO Pose ID>  (389) 
116367

>  <energy_score>  (389) 
-36.881535

>  <inchikey>  (389) 
ZAMZYOLUXASDDT-UHFFFAOYSA-N

>  <gnina_score_min>  (389) 
6.264

>  <gnina_score>  (389) 
6.068

>  <ref_mols>  (389) 
Z3556a

>  <HIPPO Compound ID>  (389) 
179709

>  <distance_score>  (389) 
1.505248

>  <rmsd(smina/fragmenstein)>  (389) 
0.58

>  <ref_pdb>  (389) 
Z3556a

>  <inspiration_score>  (389) 
None

$$$$
P116369
     RDKit          3D

 33 38  0  0  0  0  0  0  0  0999 V2000
   -3.2088    5.8403  -14.2393 C   0  0  0  0  0  0  0  0  0  0  0  0
   -3.9894    5.5279  -15.4632 C   0  0  0  0  0  0  0  0  0  0  0  0
   -3.3740    5.5129  -16.6548 N   0  0  0  0  0  0  0  0  0  0  0  0
   -4.3584    5.2072  -17.5253 N   0  0  0  0  0  0  0  0  0  0  0  0
   -4.0660    5.1494  -18.9341 C   0  0  0  0  0  0  0  0  0  0  0  0
   -5.5706    5.0054  -16.9312 C   0  0  0  0  0  0  0  0  0  0  0  0
   -6.7145    4.6524  -17.5392 N   0  0  0  0  0  0  0  0  0  0  0  0
   -7.7907    4.5329  -16.7199 C   0  0  0  0  0  0  0  0  0  0  0  0
   -9.0617    3.9644  -17.3000 C   0  0  0  0  0  0  0  0  0  0  0  0
   -9.6893    4.4809  -18.5539 C   0  0  0  0  0  0  0  0  0  0  0  0
   -9.0215    3.1459  -18.5562 C   0  0  0  0  0  0  0  0  0  0  0  0
   -7.7305    4.8641  -15.3582 C   0  0  0  0  0  0  0  0  0  0  0  0
   -9.1849    5.0698  -14.4352 Cl  0  0  0  0  0  0  0  0  0  0  0  0
   -6.4986    5.1413  -14.7592 C   0  0  0  0  0  0  0  0  0  0  0  0
   -6.4489    5.5480  -13.3509 C   0  0  0  0  0  0  0  0  0  0  0  0
   -6.0239    6.6141  -13.1217 O   0  0  0  0  0  0  0  0  0  0  0  0
   -7.0834    4.4900  -12.4023 N   0  0  0  0  0  0  0  0  0  0  0  0
   -7.3985    4.5639  -11.0497 C   0  0  0  0  0  0  0  0  0  0  0  0
   -7.2359    5.8163  -10.4236 C   0  0  0  0  0  0  0  0  0  0  0  0
   -7.6705    6.0288   -9.1306 C   0  0  0  0  0  0  0  0  0  0  0  0
   -8.2221    4.9479   -8.4891 C   0  0  0  0  0  0  0  0  0  0  0  0
   -8.3695    3.6965   -9.0543 C   0  0  0  0  0  0  0  0  0  0  0  0
   -7.9842    3.4770  -10.3684 C   0  0  0  0  0  0  0  0  0  0  0  0
   -8.9916    2.8558   -8.0115 C   0  0  0  0  0  0  0  0  0  0  0  0
   -9.4335    1.7432   -8.2103 O   0  0  0  0  0  0  0  0  0  0  0  0
   -9.0491    3.6284   -6.8724 N   0  0  0  0  0  0  0  0  0  0  0  0
   -9.6414    3.2551   -5.6044 C   0  0  0  0  0  0  0  0  0  0  0  0
   -8.6804    3.5617   -4.4757 C   0  0  0  0  0  0  0  0  0  0  0  0
   -9.1922    3.8736   -3.0869 C   0  0  0  0  0  0  0  0  0  0  0  0
   -8.5021    4.9405   -3.8693 C   0  0  0  0  0  0  0  0  0  0  0  0
   -8.7647    4.9253   -7.1562 C   0  0  0  0  0  0  0  0  0  0  0  0
   -8.9530    5.9488   -6.5253 O   0  0  0  0  0  0  0  0  0  0  0  0
   -5.3724    5.2313  -15.5795 C   0  0  0  0  0  0  0  0  0  0  0  0
  1  2  1  0
  2  3  2  0
  3  4  1  0
  4  5  1  0
  4  6  1  0
  6  7  2  0
  7  8  1  0
  8  9  1  0
  9 10  1  0
 10 11  1  0
  8 12  2  0
 12 13  1  0
 12 14  1  0
 14 15  1  0
 15 16  2  0
 15 17  1  0
 17 18  1  0
 18 19  2  0
 19 20  1  0
 20 21  2  0
 21 22  1  0
 22 23  2  0
 22 24  1  0
 24 25  2  0
 24 26  1  0
 26 27  1  0
 27 28  1  0
 28 29  1  0
 29 30  1  0
 26 31  1  0
 31 32  2  0
 14 33  2  0
 33  2  1  0
 33  6  1  0
 11  9  1  0
 23 18  1  0
 30 28  1  0
 31 21  1  0
M  END
>  <name>  (390) 
P116369

>  <alias>  (390) 
None

>  <smina_score_min>  (390) 
-7.372

>  <exports>  (390) 
['/opt/xchem-fragalysis-2/maxwin/BulkDock/OUTPUTS/openbind_xx01zvns2b_c2_elabs_1LOUTNY.sdf', '/opt/xchem-fragalysis-2/maxwin/BulkDock/OUTPUTS/openbind_xx01zvns2b_c2_elabs_1LSYIIV.sdf']

>  <tags>  (390) 
syndirella_placed,openbind_xx01zvns2b_c2_elabs,openbind_xx01zvns2b_c2_elabs_scored_6.2plus,syndirella_product,openbind_xx01zvns2b_c2_elabs_scored,openbind_xx01zvns2b_c2_elabs_scored_top80percent,BulkDock Fragalysis export

>  <subsites>  (390) 
1 - Z4590/B/203/1

>  <smiles>  (390) 
Cc1nn(C)c2nc(C3CC3)c(Cl)c(C(=O)Nc3ccc4c(c3)C(=O)N(CC3CC3)C4=O)c12

>  <HIPPO Pose ID>  (390) 
116369

>  <energy_score>  (390) 
-31.945011

>  <inchikey>  (390) 
WEOAVMIIFDEVAB-UHFFFAOYSA-N

>  <gnina_score_min>  (390) 
6.225

>  <gnina_score>  (390) 
6.31

>  <ref_mols>  (390) 
Z3556a

>  <HIPPO Compound ID>  (390) 
179712

>  <distance_score>  (390) 
0.944322

>  <rmsd(smina/fragmenstein)>  (390) 
0.543

>  <ref_pdb>  (390) 
Z3556a

>  <inspiration_score>  (390) 
None

$$$$
P116371
     RDKit          3D

 33 36  0  0  0  0  0  0  0  0999 V2000
   -4.1728    6.1177  -13.8202 C   0  0  0  0  0  0  0  0  0  0  0  0
   -4.5544    5.7574  -15.2091 C   0  0  0  0  0  0  0  0  0  0  0  0
   -3.6563    5.8830  -16.1970 N   0  0  0  0  0  0  0  0  0  0  0  0
   -4.3381    5.5313  -17.3203 N   0  0  0  0  0  0  0  0  0  0  0  0
   -3.7085    5.7668  -18.6337 C   0  0  0  0  0  0  0  0  0  0  0  0
   -2.4347    4.9119  -18.7641 C   0  0  0  0  0  0  0  0  0  0  0  0
   -3.3098    7.2594  -18.7323 C   0  0  0  0  0  0  0  0  0  0  0  0
   -4.6167    5.4771  -19.8477 C   0  0  0  0  0  0  0  0  0  0  0  0
   -5.6025    5.0829  -17.0349 C   0  0  0  0  0  0  0  0  0  0  0  0
   -6.4964    4.6032  -17.9047 N   0  0  0  0  0  0  0  0  0  0  0  0
   -7.6921    4.2614  -17.3856 C   0  0  0  0  0  0  0  0  0  0  0  0
   -8.6409    3.7225  -18.4326 C   0  0  0  0  0  0  0  0  0  0  0  0
   -9.5673    4.8070  -18.8796 C   0  0  0  0  0  0  0  0  0  0  0  0
   -9.4607    2.5406  -18.0197 C   0  0  0  0  0  0  0  0  0  0  0  0
   -8.0435    4.4618  -16.0465 C   0  0  0  0  0  0  0  0  0  0  0  0
   -7.0830    4.9832  -15.1734 C   0  0  0  0  0  0  0  0  0  0  0  0
   -7.4382    5.4745  -13.8261 C   0  0  0  0  0  0  0  0  0  0  0  0
   -7.3165    6.6265  -13.6621 O   0  0  0  0  0  0  0  0  0  0  0  0
   -7.8315    4.3533  -12.8293 N   0  0  0  0  0  0  0  0  0  0  0  0
   -8.0568    4.4026  -11.4443 C   0  0  0  0  0  0  0  0  0  0  0  0
   -7.9027    5.6296  -10.7739 C   0  0  0  0  0  0  0  0  0  0  0  0
   -8.0264    5.7223   -9.3872 C   0  0  0  0  0  0  0  0  0  0  0  0
   -8.3361    4.5782   -8.6806 C   0  0  0  0  0  0  0  0  0  0  0  0
   -8.5493    3.3668   -9.3261 C   0  0  0  0  0  0  0  0  0  0  0  0
   -8.3936    3.2537  -10.7113 C   0  0  0  0  0  0  0  0  0  0  0  0
   -8.9897    2.3523   -8.3056 C   0  0  0  0  0  0  0  0  0  0  0  0
   -8.9076    3.0259   -6.9728 N   0  0  0  0  0  0  0  0  0  0  0  0
  -10.1353    2.9677   -6.1625 C   0  0  0  0  0  0  0  0  0  0  0  0
  -10.7883    1.6331   -5.8044 C   0  0  0  0  0  0  0  0  0  0  0  0
  -10.6925    0.7459   -6.8154 F   0  0  0  0  0  0  0  0  0  0  0  0
  -12.1225    1.8507   -5.6010 F   0  0  0  0  0  0  0  0  0  0  0  0
   -8.5028    4.4245   -7.2083 C   0  0  0  0  0  0  0  0  0  0  0  0
   -5.7997    5.2681  -15.6782 C   0  0  0  0  0  0  0  0  0  0  0  0
  1  2  1  0
  2  3  2  0
  3  4  1  0
  4  5  1  0
  5  6  1  0
  5  7  1  0
  5  8  1  0
  4  9  1  0
  9 10  2  0
 10 11  1  0
 11 12  1  0
 12 13  1  0
 12 14  1  0
 11 15  2  0
 15 16  1  0
 16 17  1  0
 17 18  2  0
 17 19  1  0
 19 20  1  0
 20 21  2  0
 21 22  1  0
 22 23  2  0
 23 24  1  0
 24 25  2  0
 24 26  1  0
 26 27  1  0
 27 28  1  0
 28 29  1  0
 29 30  1  0
 29 31  1  0
 27 32  1  0
 16 33  2  0
 33  2  1  0
 33  9  1  0
 25 20  1  0
 32 23  1  0
M  END
>  <name>  (391) 
P116371

>  <alias>  (391) 
None

>  <smina_score_min>  (391) 
-7.863

>  <exports>  (391) 
['/opt/xchem-fragalysis-2/maxwin/BulkDock/OUTPUTS/openbind_xx01zvns2b_c2_elabs_1LOUTNY.sdf', '/opt/xchem-fragalysis-2/maxwin/BulkDock/OUTPUTS/openbind_xx01zvns2b_c2_elabs_1LSYIIV.sdf']

>  <tags>  (391) 
syndirella_placed,openbind_xx01zvns2b_c2_elabs,openbind_xx01zvns2b_c2_elabs_scored_6.2plus,syndirella_product,openbind_xx01zvns2b_c2_elabs_scored,openbind_xx01zvns2b_c2_elabs_scored_top80percent,BulkDock Fragalysis export

>  <subsites>  (391) 
1 - Z4590/B/203/1

>  <smiles>  (391) 
Cc1nn(C(C)(C)C)c2nc(C(C)C)cc(C(=O)Nc3ccc4c(c3)CN(CC(F)F)C4)c12

>  <HIPPO Pose ID>  (391) 
116371

>  <energy_score>  (391) 
-55.370567

>  <inchikey>  (391) 
QGRLBHLMTCPKFM-UHFFFAOYSA-N

>  <gnina_score_min>  (391) 
6.51

>  <gnina_score>  (391) 
6.385

>  <ref_mols>  (391) 
Z3556a

>  <HIPPO Compound ID>  (391) 
179714

>  <distance_score>  (391) 
0.610256

>  <rmsd(smina/fragmenstein)>  (391) 
0.443

>  <ref_pdb>  (391) 
Z3556a

>  <inspiration_score>  (391) 
None

$$$$
P116372
     RDKit          3D

 33 36  0  0  0  0  0  0  0  0999 V2000
   -3.8315    6.3300  -14.1146 C   0  0  0  0  0  0  0  0  0  0  0  0
   -4.4003    5.9791  -15.4401 C   0  0  0  0  0  0  0  0  0  0  0  0
   -3.6207    6.0370  -16.5264 N   0  0  0  0  0  0  0  0  0  0  0  0
   -4.4387    5.6815  -17.5536 N   0  0  0  0  0  0  0  0  0  0  0  0
   -3.9090    5.7778  -18.9254 C   0  0  0  0  0  0  0  0  0  0  0  0
   -3.5723    7.2579  -19.2200 C   0  0  0  0  0  0  0  0  0  0  0  0
   -4.8869    5.3168  -20.0236 C   0  0  0  0  0  0  0  0  0  0  0  0
   -2.6148    4.9466  -19.0454 C   0  0  0  0  0  0  0  0  0  0  0  0
   -5.6994    5.3485  -17.1221 C   0  0  0  0  0  0  0  0  0  0  0  0
   -6.7330    4.9200  -17.8594 N   0  0  0  0  0  0  0  0  0  0  0  0
   -7.8364    4.5578  -17.1690 C   0  0  0  0  0  0  0  0  0  0  0  0
   -8.8801    3.7517  -17.9106 C   0  0  0  0  0  0  0  0  0  0  0  0
   -8.3392    3.2206  -19.2203 C   0  0  0  0  0  0  0  0  0  0  0  0
  -10.2022    4.4382  -18.1847 C   0  0  0  0  0  0  0  0  0  0  0  0
   -7.9975    4.7759  -15.8063 C   0  0  0  0  0  0  0  0  0  0  0  0
   -6.9311    5.3250  -15.0991 C   0  0  0  0  0  0  0  0  0  0  0  0
   -7.0975    5.7815  -13.7177 C   0  0  0  0  0  0  0  0  0  0  0  0
   -6.8068    6.8889  -13.4886 O   0  0  0  0  0  0  0  0  0  0  0  0
   -7.5950    4.6622  -12.7776 N   0  0  0  0  0  0  0  0  0  0  0  0
   -7.9176    4.6956  -11.4268 C   0  0  0  0  0  0  0  0  0  0  0  0
   -7.7556    5.9109  -10.7290 C   0  0  0  0  0  0  0  0  0  0  0  0
   -7.9805    6.0014   -9.3614 C   0  0  0  0  0  0  0  0  0  0  0  0
   -8.3870    4.8599   -8.7147 C   0  0  0  0  0  0  0  0  0  0  0  0
   -8.5932    3.6693   -9.4101 C   0  0  0  0  0  0  0  0  0  0  0  0
   -8.3566    3.5470  -10.7679 C   0  0  0  0  0  0  0  0  0  0  0  0
   -9.0927    2.6855   -8.4443 C   0  0  0  0  0  0  0  0  0  0  0  0
   -9.3792    1.5418   -8.7232 O   0  0  0  0  0  0  0  0  0  0  0  0
   -9.1875    3.3373   -7.2180 N   0  0  0  0  0  0  0  0  0  0  0  0
   -9.4415    2.6431   -5.9653 C   0  0  0  0  0  0  0  0  0  0  0  0
   -9.2555    3.5346   -4.7312 C   0  0  0  0  0  0  0  0  0  0  0  0
  -10.8377    2.0323   -5.9414 C   0  0  0  0  0  0  0  0  0  0  0  0
   -8.6534    4.6744   -7.2702 C   0  0  0  0  0  0  0  0  0  0  0  0
   -5.7137    5.5547  -15.7553 C   0  0  0  0  0  0  0  0  0  0  0  0
  1  2  1  0
  2  3  2  0
  3  4  1  0
  4  5  1  0
  5  6  1  0
  5  7  1  0
  5  8  1  0
  4  9  1  0
  9 10  2  0
 10 11  1  0
 11 12  1  0
 12 13  1  0
 12 14  1  0
 11 15  2  0
 15 16  1  0
 16 17  1  0
 17 18  2  0
 17 19  1  0
 19 20  1  0
 20 21  2  0
 21 22  1  0
 22 23  2  0
 23 24  1  0
 24 25  2  0
 24 26  1  0
 26 27  2  0
 26 28  1  0
 28 29  1  0
 29 30  1  0
 29 31  1  0
 28 32  1  0
 16 33  2  0
 33  2  1  0
 33  9  1  0
 25 20  1  0
 32 23  1  0
M  END
>  <name>  (392) 
P116372

>  <alias>  (392) 
None

>  <smina_score_min>  (392) 
-7.714

>  <exports>  (392) 
['/opt/xchem-fragalysis-2/maxwin/BulkDock/OUTPUTS/openbind_xx01zvns2b_c2_elabs_1LOUTNY.sdf', '/opt/xchem-fragalysis-2/maxwin/BulkDock/OUTPUTS/openbind_xx01zvns2b_c2_elabs_1LSYIIV.sdf']

>  <tags>  (392) 
syndirella_placed,openbind_xx01zvns2b_c2_elabs,openbind_xx01zvns2b_c2_elabs_scored_6.2plus,syndirella_product,openbind_xx01zvns2b_c2_elabs_scored,openbind_xx01zvns2b_c2_elabs_scored_top80percent,BulkDock Fragalysis export

>  <subsites>  (392) 
1 - Z4590/B/203/1

>  <smiles>  (392) 
Cc1nn(C(C)(C)C)c2nc(C(C)C)cc(C(=O)Nc3ccc4c(c3)C(=O)N(C(C)C)C4)c12

>  <HIPPO Pose ID>  (392) 
116372

>  <energy_score>  (392) 
-42.968325

>  <inchikey>  (392) 
JPCYVAVDUGYTNT-UHFFFAOYSA-N

>  <gnina_score_min>  (392) 
6.413

>  <gnina_score>  (392) 
6.466

>  <ref_mols>  (392) 
Z3556a

>  <HIPPO Compound ID>  (392) 
179715

>  <distance_score>  (392) 
0.761273

>  <rmsd(smina/fragmenstein)>  (392) 
0.467

>  <ref_pdb>  (392) 
Z3556a

>  <inspiration_score>  (392) 
None

$$$$
P116402
     RDKit          3D

 33 36  0  0  0  0  0  0  0  0999 V2000
   -1.4033    5.7736  -19.3617 C   0  0  0  0  0  0  0  0  0  0  0  0
   -2.4707    4.7043  -19.5571 C   0  0  0  0  0  0  0  0  0  0  0  0
   -3.8990    5.2328  -19.3862 C   0  0  0  0  0  0  0  0  0  0  0  0
   -4.3870    5.2937  -18.0247 N   0  0  0  0  0  0  0  0  0  0  0  0
   -3.5933    5.7572  -17.0340 N   0  0  0  0  0  0  0  0  0  0  0  0
   -4.4120    5.8537  -15.9793 C   0  0  0  0  0  0  0  0  0  0  0  0
   -3.8742    6.3361  -14.6830 C   0  0  0  0  0  0  0  0  0  0  0  0
   -5.7359    5.4641  -16.3093 C   0  0  0  0  0  0  0  0  0  0  0  0
   -6.9919    5.4002  -15.7045 C   0  0  0  0  0  0  0  0  0  0  0  0
   -7.1547    5.9783  -14.3705 C   0  0  0  0  0  0  0  0  0  0  0  0
   -6.7816    7.0606  -14.1632 O   0  0  0  0  0  0  0  0  0  0  0  0
   -7.7423    4.9318  -13.4208 N   0  0  0  0  0  0  0  0  0  0  0  0
   -7.9035    4.9544  -12.0532 C   0  0  0  0  0  0  0  0  0  0  0  0
   -7.4198    6.0297  -11.2798 C   0  0  0  0  0  0  0  0  0  0  0  0
   -7.3399    5.9377   -9.8894 C   0  0  0  0  0  0  0  0  0  0  0  0
   -7.7880    4.7756   -9.3132 C   0  0  0  0  0  0  0  0  0  0  0  0
   -8.3815    3.7922  -10.1004 C   0  0  0  0  0  0  0  0  0  0  0  0
   -8.4340    3.8247  -11.4651 C   0  0  0  0  0  0  0  0  0  0  0  0
   -8.8828    2.7531   -9.2397 C   0  0  0  0  0  0  0  0  0  0  0  0
   -9.5213    1.8065   -9.6397 O   0  0  0  0  0  0  0  0  0  0  0  0
   -8.5235    3.1157   -7.9651 N   0  0  0  0  0  0  0  0  0  0  0  0
   -8.6412    2.1875   -6.8880 C   0  0  0  0  0  0  0  0  0  0  0  0
  -10.0709    1.9857   -6.5070 C   0  0  0  0  0  0  0  0  0  0  0  0
  -10.5261    2.9042   -5.3816 C   0  0  0  0  0  0  0  0  0  0  0  0
  -11.8628    2.3103   -4.9953 C   0  0  0  0  0  0  0  0  0  0  0  0
  -10.5616    4.3817   -5.7386 C   0  0  0  0  0  0  0  0  0  0  0  0
   -9.6621    2.8550   -4.2473 O   0  0  0  0  0  0  0  0  0  0  0  0
   -7.6871    4.2918   -7.9136 C   0  0  0  0  0  0  0  0  0  0  0  0
   -8.0649    4.8396  -16.3945 C   0  0  0  0  0  0  0  0  0  0  0  0
   -7.8653    4.4506  -17.7125 C   0  0  0  0  0  0  0  0  0  0  0  0
   -9.0310    3.9138  -18.4925 C   0  0  0  0  0  0  0  0  0  0  0  0
   -6.6847    4.5592  -18.3683 N   0  0  0  0  0  0  0  0  0  0  0  0
   -5.6746    5.0512  -17.6258 C   0  0  0  0  0  0  0  0  0  0  0  0
  1  2  1  0
  2  3  1  0
  3  4  1  0
  4  5  1  0
  5  6  2  0
  6  7  1  0
  6  8  1  0
  8  9  2  0
  9 10  1  0
 10 11  2  0
 10 12  1  0
 12 13  1  0
 13 14  2  0
 14 15  1  0
 15 16  2  0
 16 17  1  0
 17 18  2  0
 17 19  1  0
 19 20  2  0
 19 21  1  0
 21 22  1  0
 22 23  1  0
 23 24  1  0
 24 25  1  0
 24 26  1  0
 24 27  1  0
 21 28  1  0
  9 29  1  0
 29 30  2  0
 30 31  1  0
 30 32  1  0
 32 33  2  0
 33  4  1  0
 33  8  1  0
 18 13  1  0
 28 16  1  0
M  END
>  <name>  (393) 
P116402

>  <alias>  (393) 
None

>  <smina_score_min>  (393) 
-7.669

>  <exports>  (393) 
['/opt/xchem-fragalysis-2/maxwin/BulkDock/OUTPUTS/openbind_xx01zvns2b_c2_elabs_1LOUTNY.sdf', '/opt/xchem-fragalysis-2/maxwin/BulkDock/OUTPUTS/openbind_xx01zvns2b_c2_elabs_1LSYIIV.sdf']

>  <tags>  (393) 
syndirella_placed,openbind_xx01zvns2b_c2_elabs,openbind_xx01zvns2b_c2_elabs_scored_6.2plus,syndirella_product,openbind_xx01zvns2b_c2_elabs_scored,openbind_xx01zvns2b_c2_elabs_scored_top80percent,BulkDock Fragalysis export

>  <subsites>  (393) 
1 - Z4590/B/203/1

>  <smiles>  (393) 
CCCn1nc(C)c2c(C(=O)Nc3ccc4c(c3)C(=O)N(CCC(C)(C)O)C4)cc(C)nc21

>  <HIPPO Pose ID>  (393) 
116402

>  <energy_score>  (393) 
-39.513213

>  <inchikey>  (393) 
IZZASJGGEPAFSA-UHFFFAOYSA-N

>  <gnina_score_min>  (393) 
6.355

>  <gnina_score>  (393) 
6.24

>  <ref_mols>  (393) 
Z3556a

>  <HIPPO Compound ID>  (393) 
179759

>  <distance_score>  (393) 
1.029242

>  <rmsd(smina/fragmenstein)>  (393) 
1.156

>  <ref_pdb>  (393) 
Z3556a

>  <inspiration_score>  (393) 
None

$$$$
P116406
     RDKit          3D

 33 37  0  0  0  0  0  0  0  0999 V2000
   -2.7222    6.4204  -13.6994 C   0  0  0  0  0  0  0  0  0  0  0  0
   -3.3077    5.9948  -14.9960 C   0  0  0  0  0  0  0  0  0  0  0  0
   -2.5405    5.9832  -16.1015 N   0  0  0  0  0  0  0  0  0  0  0  0
   -3.3753    5.5660  -17.0710 N   0  0  0  0  0  0  0  0  0  0  0  0
   -2.9272    5.4041  -18.4319 C   0  0  0  0  0  0  0  0  0  0  0  0
   -4.6244    5.2987  -16.6171 C   0  0  0  0  0  0  0  0  0  0  0  0
   -5.6335    4.8612  -17.3648 N   0  0  0  0  0  0  0  0  0  0  0  0
   -6.7566    4.6408  -16.6647 C   0  0  0  0  0  0  0  0  0  0  0  0
   -7.8175    4.2015  -17.4941 C   0  0  0  0  0  0  0  0  0  0  0  0
   -7.7937    3.9463  -18.8692 C   0  0  0  0  0  0  0  0  0  0  0  0
   -9.0134    3.7078  -19.3190 N   0  0  0  0  0  0  0  0  0  0  0  0
   -9.7857    3.9850  -18.2733 N   0  0  0  0  0  0  0  0  0  0  0  0
  -11.0794    4.5421  -18.4877 C   0  0  0  0  0  0  0  0  0  0  0  0
   -9.1156    4.0370  -17.1010 C   0  0  0  0  0  0  0  0  0  0  0  0
   -6.9275    4.8672  -15.3115 C   0  0  0  0  0  0  0  0  0  0  0  0
   -5.8373    5.3405  -14.5865 C   0  0  0  0  0  0  0  0  0  0  0  0
   -6.0336    5.6931  -13.1739 C   0  0  0  0  0  0  0  0  0  0  0  0
   -5.7224    6.7587  -12.8130 O   0  0  0  0  0  0  0  0  0  0  0  0
   -6.7456    4.5462  -12.4176 N   0  0  0  0  0  0  0  0  0  0  0  0
   -7.2859    4.5083  -11.1395 C   0  0  0  0  0  0  0  0  0  0  0  0
   -7.3710    5.6783  -10.3690 C   0  0  0  0  0  0  0  0  0  0  0  0
   -7.8766    5.6416   -9.0715 C   0  0  0  0  0  0  0  0  0  0  0  0
   -8.2708    4.4192   -8.5665 C   0  0  0  0  0  0  0  0  0  0  0  0
   -8.2142    3.2607   -9.3373 C   0  0  0  0  0  0  0  0  0  0  0  0
   -7.7460    3.2874  -10.6387 C   0  0  0  0  0  0  0  0  0  0  0  0
   -8.7020    2.0998   -8.5340 C   0  0  0  0  0  0  0  0  0  0  0  0
   -8.9208    2.6457   -7.1769 N   0  0  0  0  0  0  0  0  0  0  0  0
  -10.0927    2.0893   -6.5215 C   0  0  0  0  0  0  0  0  0  0  0  0
  -10.6368    2.7817   -5.2737 C   0  0  0  0  0  0  0  0  0  0  0  0
  -11.6294    2.0094   -4.7461 F   0  0  0  0  0  0  0  0  0  0  0  0
   -9.7147    2.9716   -4.3074 F   0  0  0  0  0  0  0  0  0  0  0  0
   -8.7889    4.1011   -7.2071 C   0  0  0  0  0  0  0  0  0  0  0  0
   -4.6308    5.5612  -15.2599 C   0  0  0  0  0  0  0  0  0  0  0  0
  1  2  1  0
  2  3  2  0
  3  4  1  0
  4  5  1  0
  4  6  1  0
  6  7  2  0
  7  8  1  0
  8  9  1  0
  9 10  1  0
 10 11  2  0
 11 12  1  0
 12 13  1  0
 12 14  1  0
  8 15  2  0
 15 16  1  0
 16 17  1  0
 17 18  2  0
 17 19  1  0
 19 20  1  0
 20 21  2  0
 21 22  1  0
 22 23  2  0
 23 24  1  0
 24 25  2  0
 24 26  1  0
 26 27  1  0
 27 28  1  0
 28 29  1  0
 29 30  1  0
 29 31  1  0
 27 32  1  0
 16 33  2  0
 33  2  1  0
 33  6  1  0
 14  9  2  0
 25 20  1  0
 32 23  1  0
M  END
>  <name>  (394) 
P116406

>  <alias>  (394) 
None

>  <smina_score_min>  (394) 
-7.104

>  <exports>  (394) 
['/opt/xchem-fragalysis-2/maxwin/BulkDock/OUTPUTS/openbind_xx01zvns2b_c2_elabs_1LOUTNY.sdf', '/opt/xchem-fragalysis-2/maxwin/BulkDock/OUTPUTS/openbind_xx01zvns2b_c2_elabs_1LSYIIV.sdf']

>  <tags>  (394) 
syndirella_placed,openbind_xx01zvns2b_c2_elabs,openbind_xx01zvns2b_c2_elabs_scored_6.2plus,syndirella_product,openbind_xx01zvns2b_c2_elabs_scored,openbind_xx01zvns2b_c2_elabs_scored_top80percent,BulkDock Fragalysis export

>  <subsites>  (394) 
1 - Z4590/B/203/1

>  <smiles>  (394) 
Cc1nn(C)c2nc(-c3cnn(C)c3)cc(C(=O)Nc3ccc4c(c3)CN(CC(F)F)C4)c12

>  <HIPPO Pose ID>  (394) 
116406

>  <energy_score>  (394) 
-37.084658

>  <inchikey>  (394) 
CPRIFKJSCRPGDK-UHFFFAOYSA-N

>  <gnina_score_min>  (394) 
6.217

>  <gnina_score>  (394) 
6.316

>  <ref_mols>  (394) 
Z3556a

>  <HIPPO Compound ID>  (394) 
179768

>  <distance_score>  (394) 
1.303449

>  <rmsd(smina/fragmenstein)>  (394) 
0.847

>  <ref_pdb>  (394) 
Z3556a

>  <inspiration_score>  (394) 
None

$$$$
P116417
     RDKit          3D

 33 38  0  0  0  0  0  0  0  0999 V2000
   -8.9583    5.1556   -3.0741 C   0  0  0  0  0  0  0  0  0  0  0  0
   -9.7353    4.6189   -4.1347 O   0  0  0  0  0  0  0  0  0  0  0  0
   -9.2763    3.3180   -4.5083 C   0  0  0  0  0  0  0  0  0  0  0  0
   -9.8465    2.8774   -5.8635 C   0  0  0  0  0  0  0  0  0  0  0  0
   -9.0368    3.2852   -7.0035 N   0  0  0  0  0  0  0  0  0  0  0  0
   -9.0532    2.5450   -8.2670 C   0  0  0  0  0  0  0  0  0  0  0  0
   -8.4074    3.5029   -9.2178 C   0  0  0  0  0  0  0  0  0  0  0  0
   -8.1038    3.4016  -10.5675 C   0  0  0  0  0  0  0  0  0  0  0  0
   -7.5032    4.5127  -11.1867 C   0  0  0  0  0  0  0  0  0  0  0  0
   -7.1656    4.4748  -12.5341 N   0  0  0  0  0  0  0  0  0  0  0  0
   -6.5575    5.5673  -13.4502 C   0  0  0  0  0  0  0  0  0  0  0  0
   -6.1753    6.6416  -13.1964 O   0  0  0  0  0  0  0  0  0  0  0  0
   -6.5770    5.1698  -14.8587 C   0  0  0  0  0  0  0  0  0  0  0  0
   -7.7823    4.7559  -15.4179 C   0  0  0  0  0  0  0  0  0  0  0  0
   -7.8631    4.4939  -16.7806 C   0  0  0  0  0  0  0  0  0  0  0  0
   -9.1535    3.9433  -17.2957 C   0  0  0  0  0  0  0  0  0  0  0  0
   -9.7970    4.4206  -18.5563 C   0  0  0  0  0  0  0  0  0  0  0  0
   -9.1640    3.0665  -18.5074 C   0  0  0  0  0  0  0  0  0  0  0  0
   -6.8250    4.6847  -17.6236 N   0  0  0  0  0  0  0  0  0  0  0  0
   -5.6803    5.0710  -17.0378 C   0  0  0  0  0  0  0  0  0  0  0  0
   -5.4683    5.3196  -15.6922 C   0  0  0  0  0  0  0  0  0  0  0  0
   -4.0992    5.6608  -15.6184 C   0  0  0  0  0  0  0  0  0  0  0  0
   -3.3377    5.9944  -14.3027 C   0  0  0  0  0  0  0  0  0  0  0  0
   -3.1638    7.4416  -13.9184 C   0  0  0  0  0  0  0  0  0  0  0  0
   -1.9747    6.6382  -14.3547 C   0  0  0  0  0  0  0  0  0  0  0  0
   -3.4887    5.6332  -16.8101 N   0  0  0  0  0  0  0  0  0  0  0  0
   -4.4842    5.2919  -17.6569 N   0  0  0  0  0  0  0  0  0  0  0  0
   -4.2205    5.2027  -19.0690 C   0  0  0  0  0  0  0  0  0  0  0  0
   -7.2500    5.6969  -10.4706 C   0  0  0  0  0  0  0  0  0  0  0  0
   -7.5605    5.7938   -9.1262 C   0  0  0  0  0  0  0  0  0  0  0  0
   -8.1158    4.6822   -8.5382 C   0  0  0  0  0  0  0  0  0  0  0  0
   -8.5054    4.5493   -7.1458 C   0  0  0  0  0  0  0  0  0  0  0  0
   -8.3454    5.4458   -6.3402 O   0  0  0  0  0  0  0  0  0  0  0  0
  1  2  1  0
  2  3  1  0
  3  4  1  0
  4  5  1  0
  5  6  1  0
  6  7  1  0
  7  8  2  0
  8  9  1  0
  9 10  1  0
 10 11  1  0
 11 12  2  0
 11 13  1  0
 13 14  2  0
 14 15  1  0
 15 16  1  0
 16 17  1  0
 17 18  1  0
 15 19  2  0
 19 20  1  0
 20 21  2  0
 21 22  1  0
 22 23  1  0
 23 24  1  0
 24 25  1  0
 22 26  2  0
 26 27  1  0
 27 28  1  0
  9 29  2  0
 29 30  1  0
 30 31  2  0
 31 32  1  0
 32 33  2  0
 32  5  1  0
 31  7  1  0
 21 13  1  0
 25 23  1  0
 18 16  1  0
 27 20  1  0
M  END
>  <name>  (395) 
P116417

>  <alias>  (395) 
None

>  <smina_score_min>  (395) 
-6.668

>  <exports>  (395) 
['/opt/xchem-fragalysis-2/maxwin/BulkDock/OUTPUTS/openbind_xx01zvns2b_c2_elabs_1LOUTNY.sdf', '/opt/xchem-fragalysis-2/maxwin/BulkDock/OUTPUTS/openbind_xx01zvns2b_c2_elabs_1LSYIIV.sdf']

>  <tags>  (395) 
syndirella_placed,openbind_xx01zvns2b_c2_elabs,openbind_xx01zvns2b_c2_elabs_scored_6.2plus,syndirella_product,openbind_xx01zvns2b_c2_elabs_scored,openbind_xx01zvns2b_c2_elabs_scored_top80percent,BulkDock Fragalysis export

>  <subsites>  (395) 
1 - Z4590/B/203/1

>  <smiles>  (395) 
COCCN1Cc2cc(NC(=O)c3cc(C4CC4)nc4c3c(C3CC3)nn4C)ccc2C1=O

>  <HIPPO Pose ID>  (395) 
116417

>  <energy_score>  (395) 
-17.940361

>  <inchikey>  (395) 
RFKGVLGKEVWLAC-UHFFFAOYSA-N

>  <gnina_score_min>  (395) 
6.279

>  <gnina_score>  (395) 
6.281

>  <ref_mols>  (395) 
Z3556a

>  <HIPPO Compound ID>  (395) 
179784

>  <distance_score>  (395) 
0.811903

>  <rmsd(smina/fragmenstein)>  (395) 
0.6

>  <ref_pdb>  (395) 
Z3556a

>  <inspiration_score>  (395) 
None

$$$$
P116424
     RDKit          3D

 33 36  0  0  0  0  0  0  0  0999 V2000
   -4.5163    7.8192  -22.1068 C   0  0  0  0  0  0  0  0  0  0  0  0
   -4.1893    6.5006  -21.4252 C   0  0  0  0  0  0  0  0  0  0  0  0
   -4.3854    6.5874  -19.9120 C   0  0  0  0  0  0  0  0  0  0  0  0
   -4.0895    5.2462  -19.2432 C   0  0  0  0  0  0  0  0  0  0  0  0
   -4.3779    5.2652  -17.8254 N   0  0  0  0  0  0  0  0  0  0  0  0
   -3.4201    5.5929  -16.9336 N   0  0  0  0  0  0  0  0  0  0  0  0
   -4.0569    5.5571  -15.7528 C   0  0  0  0  0  0  0  0  0  0  0  0
   -3.3067    5.8665  -14.5097 C   0  0  0  0  0  0  0  0  0  0  0  0
   -5.4282    5.2149  -15.9007 C   0  0  0  0  0  0  0  0  0  0  0  0
   -6.5670    5.0689  -15.1034 C   0  0  0  0  0  0  0  0  0  0  0  0
   -6.5283    5.4814  -13.6869 C   0  0  0  0  0  0  0  0  0  0  0  0
   -6.1395    6.5626  -13.4653 O   0  0  0  0  0  0  0  0  0  0  0  0
   -7.1210    4.4095  -12.7318 N   0  0  0  0  0  0  0  0  0  0  0  0
   -7.4336    4.4797  -11.3755 C   0  0  0  0  0  0  0  0  0  0  0  0
   -7.2185    5.6903  -10.6970 C   0  0  0  0  0  0  0  0  0  0  0  0
   -7.5700    5.8350   -9.3637 C   0  0  0  0  0  0  0  0  0  0  0  0
   -8.1323    4.7491   -8.7314 C   0  0  0  0  0  0  0  0  0  0  0  0
   -8.3620    3.5373   -9.3805 C   0  0  0  0  0  0  0  0  0  0  0  0
   -8.0196    3.3845  -10.7176 C   0  0  0  0  0  0  0  0  0  0  0  0
   -8.9618    2.5780   -8.3873 C   0  0  0  0  0  0  0  0  0  0  0  0
   -9.3776    3.4447   -7.2441 N   0  0  0  0  0  0  0  0  0  0  0  0
   -9.3145    2.7974   -5.9373 C   0  0  0  0  0  0  0  0  0  0  0  0
   -9.8118    3.7293   -4.8000 C   0  0  0  0  0  0  0  0  0  0  0  0
   -8.8606    3.8786   -3.5923 C   0  0  0  0  0  0  0  0  0  0  0  0
   -7.4633    4.3776   -3.9601 C   0  0  0  0  0  0  0  0  0  0  0  0
   -9.4410    4.8135   -2.5286 C   0  0  0  0  0  0  0  0  0  0  0  0
   -8.5325    4.6446   -7.3078 C   0  0  0  0  0  0  0  0  0  0  0  0
   -7.7747    4.7405  -15.7364 C   0  0  0  0  0  0  0  0  0  0  0  0
   -9.2155    4.7757  -14.8111 Cl  0  0  0  0  0  0  0  0  0  0  0  0
   -7.7977    4.5008  -17.1170 C   0  0  0  0  0  0  0  0  0  0  0  0
   -9.0388    4.0452  -17.8400 C   0  0  0  0  0  0  0  0  0  0  0  0
   -6.7109    4.6448  -17.9081 N   0  0  0  0  0  0  0  0  0  0  0  0
   -5.5918    5.0070  -17.2588 C   0  0  0  0  0  0  0  0  0  0  0  0
  1  2  1  0
  2  3  1  0
  3  4  1  0
  4  5  1  0
  5  6  1  0
  6  7  2  0
  7  8  1  0
  7  9  1  0
  9 10  2  0
 10 11  1  0
 11 12  2  0
 11 13  1  0
 13 14  1  0
 14 15  2  0
 15 16  1  0
 16 17  2  0
 17 18  1  0
 18 19  2  0
 18 20  1  0
 20 21  1  0
 21 22  1  0
 22 23  1  0
 23 24  1  0
 24 25  1  0
 24 26  1  0
 21 27  1  0
 10 28  1  0
 28 29  1  0
 28 30  2  0
 30 31  1  0
 30 32  1  0
 32 33  2  0
 33  5  1  0
 33  9  1  0
 19 14  1  0
 27 17  1  0
M  END
>  <name>  (396) 
P116424

>  <alias>  (396) 
None

>  <smina_score_min>  (396) 
-7.373

>  <exports>  (396) 
['/opt/xchem-fragalysis-2/maxwin/BulkDock/OUTPUTS/openbind_xx01zvns2b_c2_elabs_1LOUTNY.sdf', '/opt/xchem-fragalysis-2/maxwin/BulkDock/OUTPUTS/openbind_xx01zvns2b_c2_elabs_1LSYIIV.sdf']

>  <tags>  (396) 
syndirella_placed,openbind_xx01zvns2b_c2_elabs,openbind_xx01zvns2b_c2_elabs_scored_6.2plus,syndirella_product,openbind_xx01zvns2b_c2_elabs_scored,openbind_xx01zvns2b_c2_elabs_scored_top80percent,BulkDock Fragalysis export

>  <subsites>  (396) 
1 - Z4590/B/203/1

>  <smiles>  (396) 
CCCCn1nc(C)c2c(C(=O)Nc3ccc4c(c3)CN(CCC(C)C)C4)c(Cl)c(C)nc21

>  <HIPPO Pose ID>  (396) 
116424

>  <energy_score>  (396) 
-60.254059

>  <inchikey>  (396) 
FINIIZWWFFPUIO-UHFFFAOYSA-N

>  <gnina_score_min>  (396) 
6.501

>  <gnina_score>  (396) 
6.452

>  <ref_mols>  (396) 
Z3556a

>  <HIPPO Compound ID>  (396) 
179793

>  <distance_score>  (396) 
0.82774

>  <rmsd(smina/fragmenstein)>  (396) 
1.173

>  <ref_pdb>  (396) 
Z3556a

>  <inspiration_score>  (396) 
None

$$$$
P116427
     RDKit          3D

 33 36  0  0  0  0  0  0  0  0999 V2000
   -3.7278    6.6826  -22.0011 C   0  0  0  0  0  0  0  0  0  0  0  0
   -4.4499    5.3861  -21.6716 C   0  0  0  0  0  0  0  0  0  0  0  0
   -4.9857    5.3267  -20.2400 C   0  0  0  0  0  0  0  0  0  0  0  0
   -3.8825    5.2799  -19.1801 C   0  0  0  0  0  0  0  0  0  0  0  0
   -4.2954    5.2717  -17.7895 N   0  0  0  0  0  0  0  0  0  0  0  0
   -3.3516    5.5429  -16.8580 N   0  0  0  0  0  0  0  0  0  0  0  0
   -4.0213    5.5457  -15.6991 C   0  0  0  0  0  0  0  0  0  0  0  0
   -3.2878    5.8298  -14.4394 C   0  0  0  0  0  0  0  0  0  0  0  0
   -5.3960    5.2501  -15.8864 C   0  0  0  0  0  0  0  0  0  0  0  0
   -6.5548    5.1385  -15.1102 C   0  0  0  0  0  0  0  0  0  0  0  0
   -6.5152    5.5409  -13.6866 C   0  0  0  0  0  0  0  0  0  0  0  0
   -6.0461    6.5815  -13.4355 O   0  0  0  0  0  0  0  0  0  0  0  0
   -7.1791    4.4896  -12.7626 N   0  0  0  0  0  0  0  0  0  0  0  0
   -7.4772    4.5402  -11.4063 C   0  0  0  0  0  0  0  0  0  0  0  0
   -7.1893    5.7082  -10.6687 C   0  0  0  0  0  0  0  0  0  0  0  0
   -7.4540    5.7848   -9.3030 C   0  0  0  0  0  0  0  0  0  0  0  0
   -8.0134    4.6741   -8.7184 C   0  0  0  0  0  0  0  0  0  0  0  0
   -8.3453    3.5433   -9.4430 C   0  0  0  0  0  0  0  0  0  0  0  0
   -8.0908    3.4397  -10.7970 C   0  0  0  0  0  0  0  0  0  0  0  0
   -8.9410    2.6004   -8.5046 C   0  0  0  0  0  0  0  0  0  0  0  0
   -9.4142    1.5306   -8.8213 O   0  0  0  0  0  0  0  0  0  0  0  0
   -8.8693    3.1896   -7.2768 N   0  0  0  0  0  0  0  0  0  0  0  0
   -9.3387    2.5686   -6.0892 C   0  0  0  0  0  0  0  0  0  0  0  0
  -10.6970    2.9662   -5.9139 O   0  0  0  0  0  0  0  0  0  0  0  0
  -11.4709    1.8415   -5.5448 C   0  0  0  0  0  0  0  0  0  0  0  0
   -8.3209    4.4284   -7.3173 C   0  0  0  0  0  0  0  0  0  0  0  0
   -8.0650    5.2122   -6.4213 O   0  0  0  0  0  0  0  0  0  0  0  0
   -7.7500    4.7948  -15.7559 C   0  0  0  0  0  0  0  0  0  0  0  0
   -9.2052    4.8162  -14.8553 Cl  0  0  0  0  0  0  0  0  0  0  0  0
   -7.7463    4.5304  -17.1306 C   0  0  0  0  0  0  0  0  0  0  0  0
   -8.9742    4.0511  -17.8644 C   0  0  0  0  0  0  0  0  0  0  0  0
   -6.6446    4.6663  -17.9028 N   0  0  0  0  0  0  0  0  0  0  0  0
   -5.5286    5.0308  -17.2488 C   0  0  0  0  0  0  0  0  0  0  0  0
  1  2  1  0
  2  3  1  0
  3  4  1  0
  4  5  1  0
  5  6  1  0
  6  7  2  0
  7  8  1  0
  7  9  1  0
  9 10  2  0
 10 11  1  0
 11 12  2  0
 11 13  1  0
 13 14  1  0
 14 15  2  0
 15 16  1  0
 16 17  2  0
 17 18  1  0
 18 19  2  0
 18 20  1  0
 20 21  2  0
 20 22  1  0
 22 23  1  0
 23 24  1  0
 24 25  1  0
 22 26  1  0
 26 27  2  0
 10 28  1  0
 28 29  1  0
 28 30  2  0
 30 31  1  0
 30 32  1  0
 32 33  2  0
 33  5  1  0
 33  9  1  0
 19 14  1  0
 26 17  1  0
M  END
>  <name>  (397) 
P116427

>  <alias>  (397) 
None

>  <smina_score_min>  (397) 
-7.319

>  <exports>  (397) 
['/opt/xchem-fragalysis-2/maxwin/BulkDock/OUTPUTS/openbind_xx01zvns2b_c2_elabs_1LOUTNY.sdf', '/opt/xchem-fragalysis-2/maxwin/BulkDock/OUTPUTS/openbind_xx01zvns2b_c2_elabs_1LSYIIV.sdf']

>  <tags>  (397) 
syndirella_placed,openbind_xx01zvns2b_c2_elabs,openbind_xx01zvns2b_c2_elabs_scored_6.2plus,syndirella_product,openbind_xx01zvns2b_c2_elabs_scored,openbind_xx01zvns2b_c2_elabs_scored_top80percent,BulkDock Fragalysis export

>  <subsites>  (397) 
1 - Z4590/B/203/1

>  <smiles>  (397) 
CCCCn1nc(C)c2c(C(=O)Nc3ccc4c(c3)C(=O)N(COC)C4=O)c(Cl)c(C)nc21

>  <HIPPO Pose ID>  (397) 
116427

>  <energy_score>  (397) 
-65.024888

>  <inchikey>  (397) 
YNWGPHNXYGKEEX-UHFFFAOYSA-N

>  <gnina_score_min>  (397) 
6.266

>  <gnina_score>  (397) 
6.233

>  <ref_mols>  (397) 
Z3556a

>  <HIPPO Compound ID>  (397) 
179795

>  <distance_score>  (397) 
0.81729

>  <rmsd(smina/fragmenstein)>  (397) 
0.72

>  <ref_pdb>  (397) 
Z3556a

>  <inspiration_score>  (397) 
None

$$$$
P116428
     RDKit          3D

 33 36  0  0  0  0  0  0  0  0999 V2000
   -2.2816    5.4470  -21.8398 C   0  0  0  0  0  0  0  0  0  0  0  0
   -3.4644    6.3135  -21.4334 C   0  0  0  0  0  0  0  0  0  0  0  0
   -3.6306    6.4554  -19.9182 C   0  0  0  0  0  0  0  0  0  0  0  0
   -3.8629    5.1173  -19.2210 C   0  0  0  0  0  0  0  0  0  0  0  0
   -4.2490    5.2646  -17.8343 N   0  0  0  0  0  0  0  0  0  0  0  0
   -3.3305    5.6158  -16.9090 N   0  0  0  0  0  0  0  0  0  0  0  0
   -4.0263    5.6532  -15.7631 C   0  0  0  0  0  0  0  0  0  0  0  0
   -3.3431    6.0227  -14.4979 C   0  0  0  0  0  0  0  0  0  0  0  0
   -5.3859    5.3022  -15.9631 C   0  0  0  0  0  0  0  0  0  0  0  0
   -6.5506    5.1682  -15.2112 C   0  0  0  0  0  0  0  0  0  0  0  0
   -6.5791    5.5978  -13.8035 C   0  0  0  0  0  0  0  0  0  0  0  0
   -6.3305    6.7156  -13.5708 O   0  0  0  0  0  0  0  0  0  0  0  0
   -7.0495    4.4580  -12.8665 N   0  0  0  0  0  0  0  0  0  0  0  0
   -7.3900    4.4797  -11.5185 C   0  0  0  0  0  0  0  0  0  0  0  0
   -7.3875    5.6982  -10.8140 C   0  0  0  0  0  0  0  0  0  0  0  0
   -7.8424    5.7626   -9.5015 C   0  0  0  0  0  0  0  0  0  0  0  0
   -8.2674    4.5847   -8.9286 C   0  0  0  0  0  0  0  0  0  0  0  0
   -8.2588    3.3627   -9.5952 C   0  0  0  0  0  0  0  0  0  0  0  0
   -7.8316    3.2949  -10.9096 C   0  0  0  0  0  0  0  0  0  0  0  0
   -8.7686    2.2966   -8.6870 C   0  0  0  0  0  0  0  0  0  0  0  0
   -9.0950    3.0465   -7.4798 N   0  0  0  0  0  0  0  0  0  0  0  0
   -9.6626    2.3696   -6.3317 C   0  0  0  0  0  0  0  0  0  0  0  0
   -9.8249    3.2076   -5.0598 C   0  0  0  0  0  0  0  0  0  0  0  0
   -8.5581    3.5629   -4.4909 O   0  0  0  0  0  0  0  0  0  0  0  0
   -8.7037    4.5246   -3.4603 C   0  0  0  0  0  0  0  0  0  0  0  0
   -8.8229    4.3922   -7.5938 C   0  0  0  0  0  0  0  0  0  0  0  0
   -9.0166    5.3136   -6.8224 O   0  0  0  0  0  0  0  0  0  0  0  0
   -7.7256    4.7784  -15.8674 C   0  0  0  0  0  0  0  0  0  0  0  0
   -9.1799    4.7254  -14.9693 Cl  0  0  0  0  0  0  0  0  0  0  0  0
   -7.7002    4.5112  -17.2411 C   0  0  0  0  0  0  0  0  0  0  0  0
   -8.9202    4.0245  -17.9836 C   0  0  0  0  0  0  0  0  0  0  0  0
   -6.5877    4.6581  -17.9998 N   0  0  0  0  0  0  0  0  0  0  0  0
   -5.4935    5.0454  -17.3190 C   0  0  0  0  0  0  0  0  0  0  0  0
  1  2  1  0
  2  3  1  0
  3  4  1  0
  4  5  1  0
  5  6  1  0
  6  7  2  0
  7  8  1  0
  7  9  1  0
  9 10  2  0
 10 11  1  0
 11 12  2  0
 11 13  1  0
 13 14  1  0
 14 15  2  0
 15 16  1  0
 16 17  2  0
 17 18  1  0
 18 19  2  0
 18 20  1  0
 20 21  1  0
 21 22  1  0
 22 23  1  0
 23 24  1  0
 24 25  1  0
 21 26  1  0
 26 27  2  0
 10 28  1  0
 28 29  1  0
 28 30  2  0
 30 31  1  0
 30 32  1  0
 32 33  2  0
 33  5  1  0
 33  9  1  0
 19 14  1  0
 26 17  1  0
M  END
>  <name>  (398) 
P116428

>  <alias>  (398) 
None

>  <smina_score_min>  (398) 
-7.058

>  <exports>  (398) 
['/opt/xchem-fragalysis-2/maxwin/BulkDock/OUTPUTS/openbind_xx01zvns2b_c2_elabs_1LOUTNY.sdf', '/opt/xchem-fragalysis-2/maxwin/BulkDock/OUTPUTS/openbind_xx01zvns2b_c2_elabs_1LSYIIV.sdf']

>  <tags>  (398) 
syndirella_placed,openbind_xx01zvns2b_c2_elabs,openbind_xx01zvns2b_c2_elabs_scored_6.2plus,syndirella_product,openbind_xx01zvns2b_c2_elabs_scored,openbind_xx01zvns2b_c2_elabs_scored_top80percent,BulkDock Fragalysis export

>  <subsites>  (398) 
1 - Z4590/B/203/1

>  <smiles>  (398) 
CCCCn1nc(C)c2c(C(=O)Nc3ccc4c(c3)CN(CCOC)C4=O)c(Cl)c(C)nc21

>  <HIPPO Pose ID>  (398) 
116428

>  <energy_score>  (398) 
-63.795371

>  <inchikey>  (398) 
NCEQBTVBYAUJNY-UHFFFAOYSA-N

>  <gnina_score_min>  (398) 
6.451

>  <gnina_score>  (398) 
6.393

>  <ref_mols>  (398) 
Z3556a

>  <HIPPO Compound ID>  (398) 
179797

>  <distance_score>  (398) 
0.799455

>  <rmsd(smina/fragmenstein)>  (398) 
0.842

>  <ref_pdb>  (398) 
Z3556a

>  <inspiration_score>  (398) 
None

$$$$
P116429
     RDKit          3D

 33 36  0  0  0  0  0  0  0  0999 V2000
   -5.0572    7.8550  -21.4562 C   0  0  0  0  0  0  0  0  0  0  0  0
   -4.5103    7.3017  -20.1498 C   0  0  0  0  0  0  0  0  0  0  0  0
   -4.3017    5.7894  -20.2356 C   0  0  0  0  0  0  0  0  0  0  0  0
   -3.5070    5.2324  -19.0550 C   0  0  0  0  0  0  0  0  0  0  0  0
   -4.0730    5.3928  -17.7358 N   0  0  0  0  0  0  0  0  0  0  0  0
   -3.2527    5.7843  -16.7350 N   0  0  0  0  0  0  0  0  0  0  0  0
   -4.0317    5.7742  -15.6477 C   0  0  0  0  0  0  0  0  0  0  0  0
   -3.4554    6.1608  -14.3348 C   0  0  0  0  0  0  0  0  0  0  0  0
   -5.3529    5.3616  -15.9551 C   0  0  0  0  0  0  0  0  0  0  0  0
   -6.5621    5.1764  -15.2829 C   0  0  0  0  0  0  0  0  0  0  0  0
   -6.6897    5.6419  -13.8894 C   0  0  0  0  0  0  0  0  0  0  0  0
   -6.3989    6.7547  -13.6784 O   0  0  0  0  0  0  0  0  0  0  0  0
   -7.2359    4.5483  -12.9364 N   0  0  0  0  0  0  0  0  0  0  0  0
   -7.6131    4.6215  -11.5983 C   0  0  0  0  0  0  0  0  0  0  0  0
   -7.5702    5.8670  -10.9478 C   0  0  0  0  0  0  0  0  0  0  0  0
   -7.8936    5.9865   -9.6038 C   0  0  0  0  0  0  0  0  0  0  0  0
   -8.2474    4.8392   -8.9318 C   0  0  0  0  0  0  0  0  0  0  0  0
   -8.3436    3.5982   -9.5692 C   0  0  0  0  0  0  0  0  0  0  0  0
   -8.0384    3.4721  -10.9162 C   0  0  0  0  0  0  0  0  0  0  0  0
   -8.7902    2.5776   -8.5607 C   0  0  0  0  0  0  0  0  0  0  0  0
   -8.5549    3.2574   -7.2757 N   0  0  0  0  0  0  0  0  0  0  0  0
   -9.3407    2.8075   -6.1296 C   0  0  0  0  0  0  0  0  0  0  0  0
   -8.9688    3.5079   -4.8029 C   0  0  0  0  0  0  0  0  0  0  0  0
   -7.6503    3.4329   -4.5036 F   0  0  0  0  0  0  0  0  0  0  0  0
   -9.6598    3.0263   -3.7518 F   0  0  0  0  0  0  0  0  0  0  0  0
   -9.2798    4.8345   -4.8577 F   0  0  0  0  0  0  0  0  0  0  0  0
   -8.5588    4.6994   -7.4876 C   0  0  0  0  0  0  0  0  0  0  0  0
   -7.6611    4.7295  -16.0191 C   0  0  0  0  0  0  0  0  0  0  0  0
   -9.1606    4.5658  -15.2310 Cl  0  0  0  0  0  0  0  0  0  0  0  0
   -7.5298    4.4823  -17.3903 C   0  0  0  0  0  0  0  0  0  0  0  0
   -8.6969    4.0006  -18.2194 C   0  0  0  0  0  0  0  0  0  0  0  0
   -6.3731    4.6763  -18.0723 N   0  0  0  0  0  0  0  0  0  0  0  0
   -5.3437    5.1060  -17.3178 C   0  0  0  0  0  0  0  0  0  0  0  0
  1  2  1  0
  2  3  1  0
  3  4  1  0
  4  5  1  0
  5  6  1  0
  6  7  2  0
  7  8  1  0
  7  9  1  0
  9 10  2  0
 10 11  1  0
 11 12  2  0
 11 13  1  0
 13 14  1  0
 14 15  2  0
 15 16  1  0
 16 17  2  0
 17 18  1  0
 18 19  2  0
 18 20  1  0
 20 21  1  0
 21 22  1  0
 22 23  1  0
 23 24  1  0
 23 25  1  0
 23 26  1  0
 21 27  1  0
 10 28  1  0
 28 29  1  0
 28 30  2  0
 30 31  1  0
 30 32  1  0
 32 33  2  0
 33  5  1  0
 33  9  1  0
 19 14  1  0
 27 17  1  0
M  END
>  <name>  (399) 
P116429

>  <alias>  (399) 
None

>  <smina_score_min>  (399) 
-7.21

>  <exports>  (399) 
['/opt/xchem-fragalysis-2/maxwin/BulkDock/OUTPUTS/openbind_xx01zvns2b_c2_elabs_1LOUTNY.sdf', '/opt/xchem-fragalysis-2/maxwin/BulkDock/OUTPUTS/openbind_xx01zvns2b_c2_elabs_1LSYIIV.sdf']

>  <tags>  (399) 
syndirella_placed,openbind_xx01zvns2b_c2_elabs,openbind_xx01zvns2b_c2_elabs_scored_6.2plus,syndirella_product,openbind_xx01zvns2b_c2_elabs_scored,openbind_xx01zvns2b_c2_elabs_scored_top80percent,BulkDock Fragalysis export

>  <subsites>  (399) 
1 - Z4590/B/203/1

>  <smiles>  (399) 
CCCCn1nc(C)c2c(C(=O)Nc3ccc4c(c3)CN(CC(F)(F)F)C4)c(Cl)c(C)nc21

>  <HIPPO Pose ID>  (399) 
116429

>  <energy_score>  (399) 
-45.094836

>  <inchikey>  (399) 
BXTOGWUSSOPJRW-UHFFFAOYSA-N

>  <gnina_score_min>  (399) 
6.549

>  <gnina_score>  (399) 
6.456

>  <ref_mols>  (399) 
Z3556a

>  <HIPPO Compound ID>  (399) 
179798

>  <distance_score>  (399) 
0.86368

>  <rmsd(smina/fragmenstein)>  (399) 
0.586

>  <ref_pdb>  (399) 
Z3556a

>  <inspiration_score>  (399) 
None

$$$$
P116430
     RDKit          3D

 33 36  0  0  0  0  0  0  0  0999 V2000
   -5.1269    6.8093  -21.3821 C   0  0  0  0  0  0  0  0  0  0  0  0
   -4.4044    7.3238  -20.1460 C   0  0  0  0  0  0  0  0  0  0  0  0
   -3.2667    6.4001  -19.7047 C   0  0  0  0  0  0  0  0  0  0  0  0
   -3.7385    5.0931  -19.0631 C   0  0  0  0  0  0  0  0  0  0  0  0
   -4.1915    5.2448  -17.6964 N   0  0  0  0  0  0  0  0  0  0  0  0
   -3.2933    5.5603  -16.7383 N   0  0  0  0  0  0  0  0  0  0  0  0
   -4.0167    5.5966  -15.6123 C   0  0  0  0  0  0  0  0  0  0  0  0
   -3.3565    5.9377  -14.3267 C   0  0  0  0  0  0  0  0  0  0  0  0
   -5.3747    5.2660  -15.8517 C   0  0  0  0  0  0  0  0  0  0  0  0
   -6.5542    5.1355  -15.1185 C   0  0  0  0  0  0  0  0  0  0  0  0
   -6.5858    5.5548  -13.7055 C   0  0  0  0  0  0  0  0  0  0  0  0
   -6.3100    6.6682  -13.4774 O   0  0  0  0  0  0  0  0  0  0  0  0
   -7.0912    4.4308  -12.7631 N   0  0  0  0  0  0  0  0  0  0  0  0
   -7.4393    4.4692  -11.4138 C   0  0  0  0  0  0  0  0  0  0  0  0
   -7.3730    5.6878  -10.7194 C   0  0  0  0  0  0  0  0  0  0  0  0
   -7.7611    5.7742   -9.3874 C   0  0  0  0  0  0  0  0  0  0  0  0
   -8.1916    4.6211   -8.7659 C   0  0  0  0  0  0  0  0  0  0  0  0
   -8.2646    3.4033   -9.4357 C   0  0  0  0  0  0  0  0  0  0  0  0
   -7.9059    3.3109  -10.7740 C   0  0  0  0  0  0  0  0  0  0  0  0
   -8.7929    2.3607   -8.4935 C   0  0  0  0  0  0  0  0  0  0  0  0
   -8.8388    3.0295   -7.1655 N   0  0  0  0  0  0  0  0  0  0  0  0
   -9.9730    2.6244   -6.3453 C   0  0  0  0  0  0  0  0  0  0  0  0
  -10.2482    3.5085   -5.1215 C   0  0  0  0  0  0  0  0  0  0  0  0
   -9.1003    3.6611   -4.1329 C   0  0  0  0  0  0  0  0  0  0  0  0
   -9.3336    4.8387   -3.3451 O   0  0  0  0  0  0  0  0  0  0  0  0
   -8.3475    4.9874   -2.3329 C   0  0  0  0  0  0  0  0  0  0  0  0
   -8.6682    4.4692   -7.3672 C   0  0  0  0  0  0  0  0  0  0  0  0
   -7.7186    4.7715  -15.8013 C   0  0  0  0  0  0  0  0  0  0  0  0
   -9.1884    4.7369  -14.9301 Cl  0  0  0  0  0  0  0  0  0  0  0  0
   -7.6678    4.5176  -17.1790 C   0  0  0  0  0  0  0  0  0  0  0  0
   -8.8802    4.0432  -17.9440 C   0  0  0  0  0  0  0  0  0  0  0  0
   -6.5392    4.6582  -17.9216 N   0  0  0  0  0  0  0  0  0  0  0  0
   -5.4534    5.0301  -17.2157 C   0  0  0  0  0  0  0  0  0  0  0  0
  1  2  1  0
  2  3  1  0
  3  4  1  0
  4  5  1  0
  5  6  1  0
  6  7  2  0
  7  8  1  0
  7  9  1  0
  9 10  2  0
 10 11  1  0
 11 12  2  0
 11 13  1  0
 13 14  1  0
 14 15  2  0
 15 16  1  0
 16 17  2  0
 17 18  1  0
 18 19  2  0
 18 20  1  0
 20 21  1  0
 21 22  1  0
 22 23  1  0
 23 24  1  0
 24 25  1  0
 25 26  1  0
 21 27  1  0
 10 28  1  0
 28 29  1  0
 28 30  2  0
 30 31  1  0
 30 32  1  0
 32 33  2  0
 33  5  1  0
 33  9  1  0
 19 14  1  0
 27 17  1  0
M  END
>  <name>  (400) 
P116430

>  <alias>  (400) 
None

>  <smina_score_min>  (400) 
-6.752

>  <exports>  (400) 
['/opt/xchem-fragalysis-2/maxwin/BulkDock/OUTPUTS/openbind_xx01zvns2b_c2_elabs_1LOUTNY.sdf', '/opt/xchem-fragalysis-2/maxwin/BulkDock/OUTPUTS/openbind_xx01zvns2b_c2_elabs_1LSYIIV.sdf']

>  <tags>  (400) 
syndirella_placed,openbind_xx01zvns2b_c2_elabs,openbind_xx01zvns2b_c2_elabs_scored_6.2plus,syndirella_product,openbind_xx01zvns2b_c2_elabs_scored,openbind_xx01zvns2b_c2_elabs_scored_top80percent,BulkDock Fragalysis export

>  <subsites>  (400) 
1 - Z4590/B/203/1

>  <smiles>  (400) 
CCCCn1nc(C)c2c(C(=O)Nc3ccc4c(c3)CN(CCCOC)C4)c(Cl)c(C)nc21

>  <HIPPO Pose ID>  (400) 
116430

>  <energy_score>  (400) 
-37.371865

>  <inchikey>  (400) 
JAUUFMIKLDEWLN-UHFFFAOYSA-N

>  <gnina_score_min>  (400) 
6.359

>  <gnina_score>  (400) 
6.411

>  <ref_mols>  (400) 
Z3556a

>  <HIPPO Compound ID>  (400) 
179799

>  <distance_score>  (400) 
0.777227

>  <rmsd(smina/fragmenstein)>  (400) 
0.672

>  <ref_pdb>  (400) 
Z3556a

>  <inspiration_score>  (400) 
None

$$$$
P116454
     RDKit          3D

 33 37  0  0  0  0  0  0  0  0999 V2000
  -11.3416    3.6371   -6.1587 C   0  0  0  0  0  0  0  0  0  0  0  0
  -11.1010    2.5932   -5.1142 C   0  0  0  0  0  0  0  0  0  0  0  0
  -10.3484    1.4790   -5.8165 C   0  0  0  0  0  0  0  0  0  0  0  0
   -8.9293    1.9237   -6.1869 C   0  0  0  0  0  0  0  0  0  0  0  0
   -8.7175    2.6290   -7.4174 N   0  0  0  0  0  0  0  0  0  0  0  0
   -8.8011    1.9922   -8.7395 C   0  0  0  0  0  0  0  0  0  0  0  0
   -8.2436    3.0572   -9.6557 C   0  0  0  0  0  0  0  0  0  0  0  0
   -8.1664    3.1130  -11.0501 C   0  0  0  0  0  0  0  0  0  0  0  0
   -7.6540    4.2946  -11.6205 C   0  0  0  0  0  0  0  0  0  0  0  0
   -7.5177    4.4275  -13.0058 N   0  0  0  0  0  0  0  0  0  0  0  0
   -6.8215    5.5301  -13.8476 C   0  0  0  0  0  0  0  0  0  0  0  0
   -6.3157    6.5175  -13.5175 O   0  0  0  0  0  0  0  0  0  0  0  0
   -6.7384    5.1798  -15.3135 C   0  0  0  0  0  0  0  0  0  0  0  0
   -7.7855    4.6663  -16.0943 C   0  0  0  0  0  0  0  0  0  0  0  0
   -7.5613    4.4293  -17.4686 C   0  0  0  0  0  0  0  0  0  0  0  0
   -8.5034    3.7068  -18.3777 C   0  0  0  0  0  0  0  0  0  0  0  0
   -9.8827    3.3031  -17.9676 C   0  0  0  0  0  0  0  0  0  0  0  0
   -9.6914    4.3999  -18.9708 C   0  0  0  0  0  0  0  0  0  0  0  0
   -6.3988    4.7134  -18.1096 N   0  0  0  0  0  0  0  0  0  0  0  0
   -5.4579    5.1653  -17.2948 C   0  0  0  0  0  0  0  0  0  0  0  0
   -5.5304    5.4096  -15.9406 C   0  0  0  0  0  0  0  0  0  0  0  0
   -4.2403    5.8642  -15.5620 C   0  0  0  0  0  0  0  0  0  0  0  0
   -3.3974    5.9023  -16.6021 N   0  0  0  0  0  0  0  0  0  0  0  0
   -4.1562    5.4552  -17.6215 N   0  0  0  0  0  0  0  0  0  0  0  0
   -3.5388    5.2875  -18.9096 C   0  0  0  0  0  0  0  0  0  0  0  0
   -3.3851    6.5945  -19.6854 C   0  0  0  0  0  0  0  0  0  0  0  0
   -4.5665    7.0066  -20.1951 F   0  0  0  0  0  0  0  0  0  0  0  0
   -2.5326    6.4594  -20.7358 F   0  0  0  0  0  0  0  0  0  0  0  0
   -7.1870    5.3168  -10.7700 C   0  0  0  0  0  0  0  0  0  0  0  0
   -7.2331    5.2566   -9.3807 C   0  0  0  0  0  0  0  0  0  0  0  0
   -7.7899    4.1182   -8.8712 C   0  0  0  0  0  0  0  0  0  0  0  0
   -7.9742    3.7913   -7.4661 C   0  0  0  0  0  0  0  0  0  0  0  0
   -7.5369    4.4695   -6.5515 O   0  0  0  0  0  0  0  0  0  0  0  0
  1  2  1  0
  2  3  1  0
  3  4  1  0
  4  5  1  0
  5  6  1  0
  6  7  1  0
  7  8  2  0
  8  9  1  0
  9 10  1  0
 10 11  1  0
 11 12  2  0
 11 13  1  0
 13 14  2  0
 14 15  1  0
 15 16  1  0
 16 17  1  0
 17 18  1  0
 15 19  2  0
 19 20  1  0
 20 21  2  0
 21 22  1  0
 22 23  2  0
 23 24  1  0
 24 25  1  0
 25 26  1  0
 26 27  1  0
 26 28  1  0
  9 29  2  0
 29 30  1  0
 30 31  2  0
 31 32  1  0
 32 33  2  0
 32  5  1  0
 31  7  1  0
 21 13  1  0
 18 16  1  0
 24 20  1  0
M  END
>  <name>  (401) 
P116454

>  <alias>  (401) 
None

>  <smina_score_min>  (401) 
-7.48

>  <exports>  (401) 
['/opt/xchem-fragalysis-2/maxwin/BulkDock/OUTPUTS/openbind_xx01zvns2b_c2_elabs_1LOUTNY.sdf', '/opt/xchem-fragalysis-2/maxwin/BulkDock/OUTPUTS/openbind_xx01zvns2b_c2_elabs_1LSYIIV.sdf']

>  <tags>  (401) 
syndirella_placed,openbind_xx01zvns2b_c2_elabs,openbind_xx01zvns2b_c2_elabs_scored_6.2plus,syndirella_product,openbind_xx01zvns2b_c2_elabs_scored,openbind_xx01zvns2b_c2_elabs_scored_top80percent,BulkDock Fragalysis export

>  <subsites>  (401) 
1 - Z4590/B/203/1

>  <smiles>  (401) 
CCCCN1Cc2cc(NC(=O)c3cc(C4CC4)nc4c3cnn4CC(F)F)ccc2C1=O

>  <HIPPO Pose ID>  (401) 
116454

>  <energy_score>  (401) 
-32.156078

>  <inchikey>  (401) 
KHFWMMLSLYTGML-UHFFFAOYSA-N

>  <gnina_score_min>  (401) 
6.417

>  <gnina_score>  (401) 
6.206

>  <ref_mols>  (401) 
Z3556a

>  <HIPPO Compound ID>  (401) 
179839

>  <distance_score>  (401) 
0.767911

>  <rmsd(smina/fragmenstein)>  (401) 
0.876

>  <ref_pdb>  (401) 
Z3556a

>  <inspiration_score>  (401) 
None

$$$$
P116490
     RDKit          3D

 33 37  0  0  0  0  0  0  0  0999 V2000
   -4.0137    5.0778   -3.5752 C   0  0  0  0  0  0  0  0  0  0  0  0
   -4.9789    4.3716   -4.3512 O   0  0  0  0  0  0  0  0  0  0  0  0
   -6.2861    4.4980   -3.7834 C   0  0  0  0  0  0  0  0  0  0  0  0
   -7.3080    3.7843   -4.6645 C   0  0  0  0  0  0  0  0  0  0  0  0
   -7.2673    4.2978   -6.1045 C   0  0  0  0  0  0  0  0  0  0  0  0
   -8.5953    4.1441   -6.7142 N   0  0  0  0  0  0  0  0  0  0  0  0
   -8.9427    5.4524   -7.2914 C   0  0  0  0  0  0  0  0  0  0  0  0
   -8.6042    5.3537   -8.7376 C   0  0  0  0  0  0  0  0  0  0  0  0
   -8.4671    6.3813   -9.6399 C   0  0  0  0  0  0  0  0  0  0  0  0
   -8.1878    6.0498  -10.9599 C   0  0  0  0  0  0  0  0  0  0  0  0
   -8.0677    4.7105  -11.3797 C   0  0  0  0  0  0  0  0  0  0  0  0
   -7.8069    4.4803  -12.7366 N   0  0  0  0  0  0  0  0  0  0  0  0
   -7.4007    5.4622  -13.8631 C   0  0  0  0  0  0  0  0  0  0  0  0
   -7.2952    6.6273  -13.8520 O   0  0  0  0  0  0  0  0  0  0  0  0
   -7.1861    4.8385  -15.1800 C   0  0  0  0  0  0  0  0  0  0  0  0
   -8.2735    4.3570  -15.9157 C   0  0  0  0  0  0  0  0  0  0  0  0
   -8.1526    4.2470  -17.3029 C   0  0  0  0  0  0  0  0  0  0  0  0
   -9.3252    3.8065  -18.1306 C   0  0  0  0  0  0  0  0  0  0  0  0
   -7.0396    4.5716  -17.9988 N   0  0  0  0  0  0  0  0  0  0  0  0
   -6.0128    4.9889  -17.2390 C   0  0  0  0  0  0  0  0  0  0  0  0
   -5.9949    5.1229  -15.8628 C   0  0  0  0  0  0  0  0  0  0  0  0
   -4.7188    5.6500  -15.5777 C   0  0  0  0  0  0  0  0  0  0  0  0
   -3.9902    5.8773  -16.6769 N   0  0  0  0  0  0  0  0  0  0  0  0
   -4.8323    5.5322  -17.6910 N   0  0  0  0  0  0  0  0  0  0  0  0
   -4.7208    6.1978  -18.9828 C   0  0  0  0  0  0  0  0  0  0  0  0
   -3.7356    5.6234  -19.9388 C   0  0  0  0  0  0  0  0  0  0  0  0
   -3.9962    4.9067  -21.0919 C   0  0  0  0  0  0  0  0  0  0  0  0
   -2.8181    4.6635  -21.8514 C   0  0  0  0  0  0  0  0  0  0  0  0
   -1.7050    5.2112  -21.2573 C   0  0  0  0  0  0  0  0  0  0  0  0
   -2.0679    5.9697  -19.7732 S   0  0  0  0  0  0  0  0  0  0  0  0
   -8.2155    3.6714  -10.4485 C   0  0  0  0  0  0  0  0  0  0  0  0
   -8.4594    4.0203   -9.1176 C   0  0  0  0  0  0  0  0  0  0  0  0
   -8.6478    3.1850   -7.8822 C   0  0  0  0  0  0  0  0  0  0  0  0
  1  2  1  0
  2  3  1  0
  3  4  1  0
  4  5  1  0
  5  6  1  0
  6  7  1  0
  7  8  1  0
  8  9  2  0
  9 10  1  0
 10 11  2  0
 11 12  1  0
 12 13  1  0
 13 14  2  0
 13 15  1  0
 15 16  2  0
 16 17  1  0
 17 18  1  0
 17 19  2  0
 19 20  1  0
 20 21  2  0
 21 22  1  0
 22 23  2  0
 23 24  1  0
 24 25  1  0
 25 26  1  0
 26 27  2  0
 27 28  1  0
 28 29  2  0
 29 30  1  0
 11 31  1  0
 31 32  2  0
 32 33  1  0
 33  6  1  0
 32  8  1  0
 21 15  1  0
 30 26  1  0
 24 20  1  0
M  END
>  <name>  (402) 
P116490

>  <alias>  (402) 
None

>  <smina_score_min>  (402) 
-7.349

>  <exports>  (402) 
['/opt/xchem-fragalysis-2/maxwin/BulkDock/OUTPUTS/openbind_xx01zvns2b_c2_elabs_1LOUTNY.sdf', '/opt/xchem-fragalysis-2/maxwin/BulkDock/OUTPUTS/openbind_xx01zvns2b_c2_elabs_1LSYIIV.sdf']

>  <tags>  (402) 
syndirella_placed,openbind_xx01zvns2b_c2_elabs,openbind_xx01zvns2b_c2_elabs_scored_6.2plus,syndirella_product,openbind_xx01zvns2b_c2_elabs_scored,openbind_xx01zvns2b_c2_elabs_scored_top80percent,BulkDock Fragalysis export

>  <subsites>  (402) 
1 - Z4590/B/203/1

>  <smiles>  (402) 
COCCCN1Cc2ccc(NC(=O)c3cc(C)nc4c3cnn4Cc3cccs3)cc2C1

>  <HIPPO Pose ID>  (402) 
116490

>  <energy_score>  (402) 
-41.964648

>  <inchikey>  (402) 
SHKIRQYKCIMIKI-UHFFFAOYSA-N

>  <gnina_score_min>  (402) 
6.245

>  <gnina_score>  (402) 
6.232

>  <ref_mols>  (402) 
Z3556a

>  <HIPPO Compound ID>  (402) 
179869

>  <distance_score>  (402) 
0.928733

>  <rmsd(smina/fragmenstein)>  (402) 
0.819

>  <ref_pdb>  (402) 
Z3556a

>  <inspiration_score>  (402) 
None

$$$$
P116499
     RDKit          3D

 33 37  0  0  0  0  0  0  0  0999 V2000
   -8.9658    3.8664   -3.8361 C   0  0  0  0  0  0  0  0  0  0  0  0
  -10.2219    3.7481   -4.6810 C   0  0  0  0  0  0  0  0  0  0  0  0
  -10.3929    2.4924   -5.5278 C   0  0  0  0  0  0  0  0  0  0  0  0
   -9.1840    2.0785   -6.3489 C   0  0  0  0  0  0  0  0  0  0  0  0
   -9.0434    2.8058   -7.5791 N   0  0  0  0  0  0  0  0  0  0  0  0
   -8.7831    2.0770   -8.8082 C   0  0  0  0  0  0  0  0  0  0  0  0
   -8.4883    3.1759   -9.7632 C   0  0  0  0  0  0  0  0  0  0  0  0
   -8.2961    3.1364  -11.1275 C   0  0  0  0  0  0  0  0  0  0  0  0
   -8.0462    4.3459  -11.7771 C   0  0  0  0  0  0  0  0  0  0  0  0
   -7.8305    4.3395  -13.1450 N   0  0  0  0  0  0  0  0  0  0  0  0
   -7.5798    5.4967  -14.1197 C   0  0  0  0  0  0  0  0  0  0  0  0
   -7.5901    6.6480  -13.9441 O   0  0  0  0  0  0  0  0  0  0  0  0
   -7.2313    5.0118  -15.4492 C   0  0  0  0  0  0  0  0  0  0  0  0
   -8.2028    4.5959  -16.3444 C   0  0  0  0  0  0  0  0  0  0  0  0
   -7.8290    4.4328  -17.6729 C   0  0  0  0  0  0  0  0  0  0  0  0
   -8.8746    3.9692  -18.6479 C   0  0  0  0  0  0  0  0  0  0  0  0
   -6.5908    4.7102  -18.1688 N   0  0  0  0  0  0  0  0  0  0  0  0
   -5.6741    5.0324  -17.2331 C   0  0  0  0  0  0  0  0  0  0  0  0
   -5.9127    5.1531  -15.8743 C   0  0  0  0  0  0  0  0  0  0  0  0
   -4.6689    5.4521  -15.2974 C   0  0  0  0  0  0  0  0  0  0  0  0
   -3.6961    5.5289  -16.2041 N   0  0  0  0  0  0  0  0  0  0  0  0
   -4.3538    5.3982  -17.3972 N   0  0  0  0  0  0  0  0  0  0  0  0
   -3.7608    6.1299  -18.5101 C   0  0  0  0  0  0  0  0  0  0  0  0
   -3.9175    5.6119  -19.8922 C   0  0  0  0  0  0  0  0  0  0  0  0
   -5.0060    5.7338  -20.7304 C   0  0  0  0  0  0  0  0  0  0  0  0
   -4.6919    5.3924  -22.0725 C   0  0  0  0  0  0  0  0  0  0  0  0
   -3.3901    4.9649  -22.2047 C   0  0  0  0  0  0  0  0  0  0  0  0
   -2.5599    4.9692  -20.7154 S   0  0  0  0  0  0  0  0  0  0  0  0
   -7.9810    5.5612  -11.0634 C   0  0  0  0  0  0  0  0  0  0  0  0
   -8.1506    5.5885   -9.6853 C   0  0  0  0  0  0  0  0  0  0  0  0
   -8.4011    4.3826   -9.0740 C   0  0  0  0  0  0  0  0  0  0  0  0
   -8.6427    4.1240   -7.6618 C   0  0  0  0  0  0  0  0  0  0  0  0
   -8.4836    4.9657   -6.7988 O   0  0  0  0  0  0  0  0  0  0  0  0
  1  2  1  0
  2  3  1  0
  3  4  1  0
  4  5  1  0
  5  6  1  0
  6  7  1  0
  7  8  2  0
  8  9  1  0
  9 10  1  0
 10 11  1  0
 11 12  2  0
 11 13  1  0
 13 14  2  0
 14 15  1  0
 15 16  1  0
 15 17  2  0
 17 18  1  0
 18 19  2  0
 19 20  1  0
 20 21  2  0
 21 22  1  0
 22 23  1  0
 23 24  1  0
 24 25  2  0
 25 26  1  0
 26 27  2  0
 27 28  1  0
  9 29  2  0
 29 30  1  0
 30 31  2  0
 31 32  1  0
 32 33  2  0
 32  5  1  0
 31  7  1  0
 19 13  1  0
 28 24  1  0
 22 18  1  0
M  END
>  <name>  (403) 
P116499

>  <alias>  (403) 
None

>  <smina_score_min>  (403) 
-8.11

>  <exports>  (403) 
['/opt/xchem-fragalysis-2/maxwin/BulkDock/OUTPUTS/openbind_xx01zvns2b_c2_elabs_1LOUTNY.sdf', '/opt/xchem-fragalysis-2/maxwin/BulkDock/OUTPUTS/openbind_xx01zvns2b_c2_elabs_1LSYIIV.sdf']

>  <tags>  (403) 
syndirella_placed,openbind_xx01zvns2b_c2_elabs,openbind_xx01zvns2b_c2_elabs_scored_6.2plus,syndirella_product,openbind_xx01zvns2b_c2_elabs_scored,openbind_xx01zvns2b_c2_elabs_scored_top80percent,BulkDock Fragalysis export

>  <subsites>  (403) 
1 - Z4590/B/203/1

>  <smiles>  (403) 
CCCCN1Cc2cc(NC(=O)c3cc(C)nc4c3cnn4Cc3cccs3)ccc2C1=O

>  <HIPPO Pose ID>  (403) 
116499

>  <energy_score>  (403) 
-15.369892

>  <inchikey>  (403) 
ZKAQQHATSKAOHC-UHFFFAOYSA-N

>  <gnina_score_min>  (403) 
6.354

>  <gnina_score>  (403) 
6.368

>  <ref_mols>  (403) 
Z3556a

>  <HIPPO Compound ID>  (403) 
179879

>  <distance_score>  (403) 
0.642326

>  <rmsd(smina/fragmenstein)>  (403) 
0.789

>  <ref_pdb>  (403) 
Z3556a

>  <inspiration_score>  (403) 
None

$$$$
P116502
     RDKit          3D

 33 37  0  0  0  0  0  0  0  0999 V2000
   -9.7425    4.6188  -18.8071 C   0  0  0  0  0  0  0  0  0  0  0  0
   -8.8617    3.5231  -18.2901 C   0  0  0  0  0  0  0  0  0  0  0  0
   -7.8118    4.1288  -17.4001 C   0  0  0  0  0  0  0  0  0  0  0  0
   -8.1082    4.4327  -16.0784 C   0  0  0  0  0  0  0  0  0  0  0  0
   -7.1215    5.0526  -15.3168 C   0  0  0  0  0  0  0  0  0  0  0  0
   -7.4539    5.6044  -14.0085 C   0  0  0  0  0  0  0  0  0  0  0  0
   -7.4251    6.7649  -13.8911 O   0  0  0  0  0  0  0  0  0  0  0  0
   -7.7752    4.5029  -12.9783 N   0  0  0  0  0  0  0  0  0  0  0  0
   -8.0265    4.5884  -11.6147 C   0  0  0  0  0  0  0  0  0  0  0  0
   -8.0378    5.8622  -11.0190 C   0  0  0  0  0  0  0  0  0  0  0  0
   -8.2316    6.0122   -9.6571 C   0  0  0  0  0  0  0  0  0  0  0  0
   -8.4245    4.8687   -8.9170 C   0  0  0  0  0  0  0  0  0  0  0  0
   -8.4422    3.5984   -9.4887 C   0  0  0  0  0  0  0  0  0  0  0  0
   -8.2391    3.4352  -10.8502 C   0  0  0  0  0  0  0  0  0  0  0  0
   -8.7466    2.5931   -8.4182 C   0  0  0  0  0  0  0  0  0  0  0  0
   -8.6921    3.3698   -7.1469 N   0  0  0  0  0  0  0  0  0  0  0  0
   -9.6526    2.9238   -6.1524 C   0  0  0  0  0  0  0  0  0  0  0  0
  -10.0904    3.8950   -5.0431 C   0  0  0  0  0  0  0  0  0  0  0  0
   -9.0957    4.7796   -4.2892 C   0  0  0  0  0  0  0  0  0  0  0  0
   -8.1191    4.1093   -3.5125 O   0  0  0  0  0  0  0  0  0  0  0  0
   -6.9792    3.7620   -4.2730 C   0  0  0  0  0  0  0  0  0  0  0  0
   -8.6670    4.7885   -7.4593 C   0  0  0  0  0  0  0  0  0  0  0  0
   -5.8615    5.2964  -15.8741 C   0  0  0  0  0  0  0  0  0  0  0  0
   -4.6001    5.8165  -15.5066 C   0  0  0  0  0  0  0  0  0  0  0  0
   -4.2254    6.2978  -14.0750 C   0  0  0  0  0  0  0  0  0  0  0  0
   -3.0448    7.2142  -13.8707 C   0  0  0  0  0  0  0  0  0  0  0  0
   -4.4381    7.7468  -13.7187 C   0  0  0  0  0  0  0  0  0  0  0  0
   -3.7214    5.8192  -16.5164 N   0  0  0  0  0  0  0  0  0  0  0  0
   -4.4401    5.3246  -17.5494 N   0  0  0  0  0  0  0  0  0  0  0  0
   -3.8452    5.2250  -18.8645 C   0  0  0  0  0  0  0  0  0  0  0  0
   -3.7086    6.5792  -19.5387 C   0  0  0  0  0  0  0  0  0  0  0  0
   -5.7138    4.9676  -17.2081 C   0  0  0  0  0  0  0  0  0  0  0  0
   -6.6384    4.4186  -18.0113 N   0  0  0  0  0  0  0  0  0  0  0  0
  1  2  1  0
  2  3  1  0
  3  4  2  0
  4  5  1  0
  5  6  1  0
  6  7  2  0
  6  8  1  0
  8  9  1  0
  9 10  2  0
 10 11  1  0
 11 12  2  0
 12 13  1  0
 13 14  2  0
 13 15  1  0
 15 16  1  0
 16 17  1  0
 17 18  1  0
 18 19  1  0
 19 20  1  0
 20 21  1  0
 16 22  1  0
  5 23  2  0
 23 24  1  0
 24 25  1  0
 25 26  1  0
 26 27  1  0
 24 28  2  0
 28 29  1  0
 29 30  1  0
 30 31  1  0
 29 32  1  0
 32 33  2  0
 33  3  1  0
 14  9  1  0
 32 23  1  0
 22 12  1  0
 27 25  1  0
M  END
>  <name>  (404) 
P116502

>  <alias>  (404) 
None

>  <smina_score_min>  (404) 
-7.25

>  <exports>  (404) 
['/opt/xchem-fragalysis-2/maxwin/BulkDock/OUTPUTS/openbind_xx01zvns2b_c2_elabs_1LOUTNY.sdf', '/opt/xchem-fragalysis-2/maxwin/BulkDock/OUTPUTS/openbind_xx01zvns2b_c2_elabs_1LSYIIV.sdf']

>  <tags>  (404) 
syndirella_placed,openbind_xx01zvns2b_c2_elabs,openbind_xx01zvns2b_c2_elabs_scored_6.2plus,syndirella_product,openbind_xx01zvns2b_c2_elabs_scored,openbind_xx01zvns2b_c2_elabs_scored_top80percent,BulkDock Fragalysis export

>  <subsites>  (404) 
1 - Z4590/B/203/1

>  <smiles>  (404) 
CCc1cc(C(=O)Nc2ccc3c(c2)CN(CCCOC)C3)c2c(C3CC3)nn(CC)c2n1

>  <HIPPO Pose ID>  (404) 
116502

>  <energy_score>  (404) 
-65.325405

>  <inchikey>  (404) 
UNBFMAJUUZDTJI-UHFFFAOYSA-N

>  <gnina_score_min>  (404) 
6.455

>  <gnina_score>  (404) 
6.377

>  <ref_mols>  (404) 
Z3556a

>  <HIPPO Compound ID>  (404) 
179881

>  <distance_score>  (404) 
0.698875

>  <rmsd(smina/fragmenstein)>  (404) 
1.11

>  <ref_pdb>  (404) 
Z3556a

>  <inspiration_score>  (404) 
None

$$$$
P116503
     RDKit          3D

 33 37  0  0  0  0  0  0  0  0999 V2000
   -9.3871    2.8972  -18.1489 C   0  0  0  0  0  0  0  0  0  0  0  0
   -9.1339    4.3715  -18.1703 C   0  0  0  0  0  0  0  0  0  0  0  0
   -7.9052    4.6898  -17.3595 C   0  0  0  0  0  0  0  0  0  0  0  0
   -8.0484    4.8942  -15.9900 C   0  0  0  0  0  0  0  0  0  0  0  0
   -6.9285    5.2620  -15.2523 C   0  0  0  0  0  0  0  0  0  0  0  0
   -7.1014    5.7409  -13.8809 C   0  0  0  0  0  0  0  0  0  0  0  0
   -6.8713    6.8623  -13.6566 O   0  0  0  0  0  0  0  0  0  0  0  0
   -7.5680    4.6091  -12.9435 N   0  0  0  0  0  0  0  0  0  0  0  0
   -7.9277    4.6392  -11.6017 C   0  0  0  0  0  0  0  0  0  0  0  0
   -7.9263    5.8631  -10.9066 C   0  0  0  0  0  0  0  0  0  0  0  0
   -8.1869    5.9174   -9.5404 C   0  0  0  0  0  0  0  0  0  0  0  0
   -8.4354    4.7287   -8.8926 C   0  0  0  0  0  0  0  0  0  0  0  0
   -8.4779    3.5113   -9.5852 C   0  0  0  0  0  0  0  0  0  0  0  0
   -8.2391    3.4464  -10.9464 C   0  0  0  0  0  0  0  0  0  0  0  0
   -8.7805    2.4139   -8.6155 C   0  0  0  0  0  0  0  0  0  0  0  0
   -8.5162    3.0565   -7.3244 N   0  0  0  0  0  0  0  0  0  0  0  0
   -9.0612    2.4006   -6.1497 C   0  0  0  0  0  0  0  0  0  0  0  0
  -10.5686    2.2560   -5.9562 C   0  0  0  0  0  0  0  0  0  0  0  0
  -11.0661    1.2580   -6.7087 F   0  0  0  0  0  0  0  0  0  0  0  0
  -10.8905    1.9908   -4.6748 F   0  0  0  0  0  0  0  0  0  0  0  0
  -11.2306    3.3922   -6.2721 F   0  0  0  0  0  0  0  0  0  0  0  0
   -8.6675    4.4937   -7.4380 C   0  0  0  0  0  0  0  0  0  0  0  0
   -5.6874    5.3396  -15.8877 C   0  0  0  0  0  0  0  0  0  0  0  0
   -4.3411    5.6289  -15.5783 C   0  0  0  0  0  0  0  0  0  0  0  0
   -3.8096    5.9384  -14.1490 C   0  0  0  0  0  0  0  0  0  0  0  0
   -2.4692    6.6052  -13.9664 C   0  0  0  0  0  0  0  0  0  0  0  0
   -3.7286    7.3759  -13.7035 C   0  0  0  0  0  0  0  0  0  0  0  0
   -3.5398    5.5907  -16.6482 N   0  0  0  0  0  0  0  0  0  0  0  0
   -4.3822    5.2701  -17.6577 N   0  0  0  0  0  0  0  0  0  0  0  0
   -3.9217    5.2625  -19.0308 C   0  0  0  0  0  0  0  0  0  0  0  0
   -2.4935    4.7724  -19.2198 C   0  0  0  0  0  0  0  0  0  0  0  0
   -5.6782    5.0911  -17.2505 C   0  0  0  0  0  0  0  0  0  0  0  0
   -6.7331    4.7792  -18.0268 N   0  0  0  0  0  0  0  0  0  0  0  0
  1  2  1  0
  2  3  1  0
  3  4  2  0
  4  5  1  0
  5  6  1  0
  6  7  2  0
  6  8  1  0
  8  9  1  0
  9 10  2  0
 10 11  1  0
 11 12  2  0
 12 13  1  0
 13 14  2  0
 13 15  1  0
 15 16  1  0
 16 17  1  0
 17 18  1  0
 18 19  1  0
 18 20  1  0
 18 21  1  0
 16 22  1  0
  5 23  2  0
 23 24  1  0
 24 25  1  0
 25 26  1  0
 26 27  1  0
 24 28  2  0
 28 29  1  0
 29 30  1  0
 30 31  1  0
 29 32  1  0
 32 33  2  0
 33  3  1  0
 14  9  1  0
 32 23  1  0
 22 12  1  0
 27 25  1  0
M  END
>  <name>  (405) 
P116503

>  <alias>  (405) 
None

>  <smina_score_min>  (405) 
-7.709

>  <exports>  (405) 
['/opt/xchem-fragalysis-2/maxwin/BulkDock/OUTPUTS/openbind_xx01zvns2b_c2_elabs_1LOUTNY.sdf', '/opt/xchem-fragalysis-2/maxwin/BulkDock/OUTPUTS/openbind_xx01zvns2b_c2_elabs_1LSYIIV.sdf']

>  <tags>  (405) 
syndirella_placed,openbind_xx01zvns2b_c2_elabs,openbind_xx01zvns2b_c2_elabs_scored_6.2plus,syndirella_product,openbind_xx01zvns2b_c2_elabs_scored,openbind_xx01zvns2b_c2_elabs_scored_top80percent,BulkDock Fragalysis export

>  <subsites>  (405) 
1 - Z4590/B/203/1

>  <smiles>  (405) 
CCc1cc(C(=O)Nc2ccc3c(c2)CN(CC(F)(F)F)C3)c2c(C3CC3)nn(CC)c2n1

>  <HIPPO Pose ID>  (405) 
116503

>  <energy_score>  (405) 
-63.018341

>  <inchikey>  (405) 
QRYYXQUSGSFIPW-UHFFFAOYSA-N

>  <gnina_score_min>  (405) 
6.455

>  <gnina_score>  (405) 
6.29

>  <ref_mols>  (405) 
Z3556a

>  <HIPPO Compound ID>  (405) 
179882

>  <distance_score>  (405) 
0.64904

>  <rmsd(smina/fragmenstein)>  (405) 
0.439

>  <ref_pdb>  (405) 
Z3556a

>  <inspiration_score>  (405) 
None

$$$$
P116504
     RDKit          3D

 33 37  0  0  0  0  0  0  0  0999 V2000
   -9.7481    4.6175  -18.8215 C   0  0  0  0  0  0  0  0  0  0  0  0
   -8.8653    3.5233  -18.3050 C   0  0  0  0  0  0  0  0  0  0  0  0
   -7.8209    4.1324  -17.4110 C   0  0  0  0  0  0  0  0  0  0  0  0
   -8.1291    4.4483  -16.0943 C   0  0  0  0  0  0  0  0  0  0  0  0
   -7.1474    5.0701  -15.3292 C   0  0  0  0  0  0  0  0  0  0  0  0
   -7.4710    5.6263  -14.0191 C   0  0  0  0  0  0  0  0  0  0  0  0
   -7.4180    6.7852  -13.8945 O   0  0  0  0  0  0  0  0  0  0  0  0
   -7.8105    4.5255  -12.9949 N   0  0  0  0  0  0  0  0  0  0  0  0
   -8.0540    4.6073  -11.6315 C   0  0  0  0  0  0  0  0  0  0  0  0
   -7.9319    5.8614  -10.9979 C   0  0  0  0  0  0  0  0  0  0  0  0
   -8.0455    5.9816   -9.6223 C   0  0  0  0  0  0  0  0  0  0  0  0
   -8.2985    4.8256   -8.9264 C   0  0  0  0  0  0  0  0  0  0  0  0
   -8.4757    3.5780   -9.5283 C   0  0  0  0  0  0  0  0  0  0  0  0
   -8.3473    3.4490  -10.9001 C   0  0  0  0  0  0  0  0  0  0  0  0
   -8.7549    2.5560   -8.4761 C   0  0  0  0  0  0  0  0  0  0  0  0
   -8.7152    3.3641   -7.2605 N   0  0  0  0  0  0  0  0  0  0  0  0
   -8.6868    2.7807   -5.9452 C   0  0  0  0  0  0  0  0  0  0  0  0
   -9.6972    3.4186   -4.9917 C   0  0  0  0  0  0  0  0  0  0  0  0
  -11.0497    3.2678   -5.4161 O   0  0  0  0  0  0  0  0  0  0  0  0
  -11.4267    1.9108   -5.5660 C   0  0  0  0  0  0  0  0  0  0  0  0
   -8.3718    4.6731   -7.4824 C   0  0  0  0  0  0  0  0  0  0  0  0
   -8.1139    5.5507   -6.6794 O   0  0  0  0  0  0  0  0  0  0  0  0
   -5.8818    5.3005  -15.8786 C   0  0  0  0  0  0  0  0  0  0  0  0
   -4.6198    5.8050  -15.4980 C   0  0  0  0  0  0  0  0  0  0  0  0
   -4.2545    6.2768  -14.0639 C   0  0  0  0  0  0  0  0  0  0  0  0
   -2.9169    5.9024  -13.4776 C   0  0  0  0  0  0  0  0  0  0  0  0
   -4.1655    5.2525  -12.9597 C   0  0  0  0  0  0  0  0  0  0  0  0
   -3.7360    5.8224  -16.5026 N   0  0  0  0  0  0  0  0  0  0  0  0
   -4.4473    5.3274  -17.5421 N   0  0  0  0  0  0  0  0  0  0  0  0
   -3.8450    5.2334  -18.8544 C   0  0  0  0  0  0  0  0  0  0  0  0
   -3.7148    6.5891  -19.5266 C   0  0  0  0  0  0  0  0  0  0  0  0
   -5.7232    4.9681  -17.2095 C   0  0  0  0  0  0  0  0  0  0  0  0
   -6.6425    4.4160  -18.0160 N   0  0  0  0  0  0  0  0  0  0  0  0
  1  2  1  0
  2  3  1  0
  3  4  2  0
  4  5  1  0
  5  6  1  0
  6  7  2  0
  6  8  1  0
  8  9  1  0
  9 10  2  0
 10 11  1  0
 11 12  2  0
 12 13  1  0
 13 14  2  0
 13 15  1  0
 15 16  1  0
 16 17  1  0
 17 18  1  0
 18 19  1  0
 19 20  1  0
 16 21  1  0
 21 22  2  0
  5 23  2  0
 23 24  1  0
 24 25  1  0
 25 26  1  0
 26 27  1  0
 24 28  2  0
 28 29  1  0
 29 30  1  0
 30 31  1  0
 29 32  1  0
 32 33  2  0
 33  3  1  0
 14  9  1  0
 32 23  1  0
 21 12  1  0
 27 25  1  0
M  END
>  <name>  (406) 
P116504

>  <alias>  (406) 
None

>  <smina_score_min>  (406) 
-7.033

>  <exports>  (406) 
['/opt/xchem-fragalysis-2/maxwin/BulkDock/OUTPUTS/openbind_xx01zvns2b_c2_elabs_1LOUTNY.sdf', '/opt/xchem-fragalysis-2/maxwin/BulkDock/OUTPUTS/openbind_xx01zvns2b_c2_elabs_1LSYIIV.sdf']

>  <tags>  (406) 
syndirella_placed,openbind_xx01zvns2b_c2_elabs,openbind_xx01zvns2b_c2_elabs_scored_6.2plus,syndirella_product,openbind_xx01zvns2b_c2_elabs_scored,openbind_xx01zvns2b_c2_elabs_scored_top80percent,BulkDock Fragalysis export

>  <subsites>  (406) 
1 - Z4590/B/203/1

>  <smiles>  (406) 
CCc1cc(C(=O)Nc2ccc3c(c2)CN(CCOC)C3=O)c2c(C3CC3)nn(CC)c2n1

>  <HIPPO Pose ID>  (406) 
116504

>  <energy_score>  (406) 
-50.191599

>  <inchikey>  (406) 
VLDXNYKGDYEUHX-UHFFFAOYSA-N

>  <gnina_score_min>  (406) 
6.515

>  <gnina_score>  (406) 
5.988

>  <ref_mols>  (406) 
Z3556a

>  <HIPPO Compound ID>  (406) 
179883

>  <distance_score>  (406) 
0.695485

>  <rmsd(smina/fragmenstein)>  (406) 
0.771

>  <ref_pdb>  (406) 
Z3556a

>  <inspiration_score>  (406) 
None

$$$$
P116505
     RDKit          3D

 33 37  0  0  0  0  0  0  0  0999 V2000
   -9.7441    4.6277  -18.7830 C   0  0  0  0  0  0  0  0  0  0  0  0
   -8.8783    3.5420  -18.2235 C   0  0  0  0  0  0  0  0  0  0  0  0
   -7.8277    4.1601  -17.3425 C   0  0  0  0  0  0  0  0  0  0  0  0
   -8.1166    4.4733  -16.0185 C   0  0  0  0  0  0  0  0  0  0  0  0
   -7.1212    5.0817  -15.2570 C   0  0  0  0  0  0  0  0  0  0  0  0
   -7.4076    5.6144  -13.9225 C   0  0  0  0  0  0  0  0  0  0  0  0
   -7.2867    6.7642  -13.7621 O   0  0  0  0  0  0  0  0  0  0  0  0
   -7.7919    4.5003  -12.9264 N   0  0  0  0  0  0  0  0  0  0  0  0
   -8.0074    4.5511  -11.5548 C   0  0  0  0  0  0  0  0  0  0  0  0
   -7.7592    5.7586  -10.8623 C   0  0  0  0  0  0  0  0  0  0  0  0
   -7.8657    5.8361   -9.4757 C   0  0  0  0  0  0  0  0  0  0  0  0
   -8.2428    4.6880   -8.8235 C   0  0  0  0  0  0  0  0  0  0  0  0
   -8.5386    3.5164   -9.4986 C   0  0  0  0  0  0  0  0  0  0  0  0
   -8.4163    3.4045  -10.8705 C   0  0  0  0  0  0  0  0  0  0  0  0
   -8.9880    2.5570   -8.4987 C   0  0  0  0  0  0  0  0  0  0  0  0
   -9.4322    1.4604   -8.7609 O   0  0  0  0  0  0  0  0  0  0  0  0
   -8.8601    3.1772   -7.2914 N   0  0  0  0  0  0  0  0  0  0  0  0
   -9.2665    2.5806   -6.0684 C   0  0  0  0  0  0  0  0  0  0  0  0
  -10.6196    2.9741   -5.8413 O   0  0  0  0  0  0  0  0  0  0  0  0
  -11.3989    1.8309   -5.5401 C   0  0  0  0  0  0  0  0  0  0  0  0
   -8.4124    4.4520   -7.3976 C   0  0  0  0  0  0  0  0  0  0  0  0
   -8.1580    5.2771   -6.5394 O   0  0  0  0  0  0  0  0  0  0  0  0
   -5.8621    5.3057  -15.8277 C   0  0  0  0  0  0  0  0  0  0  0  0
   -4.5870    5.7904  -15.4612 C   0  0  0  0  0  0  0  0  0  0  0  0
   -4.1876    6.2363  -14.0278 C   0  0  0  0  0  0  0  0  0  0  0  0
   -4.0931    5.1957  -12.9394 C   0  0  0  0  0  0  0  0  0  0  0  0
   -2.8447    5.8326  -13.4734 C   0  0  0  0  0  0  0  0  0  0  0  0
   -3.7190    5.8100  -16.4792 N   0  0  0  0  0  0  0  0  0  0  0  0
   -4.4492    5.3318  -17.5113 N   0  0  0  0  0  0  0  0  0  0  0  0
   -3.8631    5.2401  -18.8310 C   0  0  0  0  0  0  0  0  0  0  0  0
   -3.7564    6.5954  -19.5080 C   0  0  0  0  0  0  0  0  0  0  0  0
   -5.7242    4.9819  -17.1644 C   0  0  0  0  0  0  0  0  0  0  0  0
   -6.6563    4.4402  -17.9642 N   0  0  0  0  0  0  0  0  0  0  0  0
  1  2  1  0
  2  3  1  0
  3  4  2  0
  4  5  1  0
  5  6  1  0
  6  7  2  0
  6  8  1  0
  8  9  1  0
  9 10  2  0
 10 11  1  0
 11 12  2  0
 12 13  1  0
 13 14  2  0
 13 15  1  0
 15 16  2  0
 15 17  1  0
 17 18  1  0
 18 19  1  0
 19 20  1  0
 17 21  1  0
 21 22  2  0
  5 23  2  0
 23 24  1  0
 24 25  1  0
 25 26  1  0
 26 27  1  0
 24 28  2  0
 28 29  1  0
 29 30  1  0
 30 31  1  0
 29 32  1  0
 32 33  2  0
 33  3  1  0
 14  9  1  0
 32 23  1  0
 21 12  1  0
 27 25  1  0
M  END
>  <name>  (407) 
P116505

>  <alias>  (407) 
None

>  <smina_score_min>  (407) 
-7.329

>  <exports>  (407) 
['/opt/xchem-fragalysis-2/maxwin/BulkDock/OUTPUTS/openbind_xx01zvns2b_c2_elabs_1LOUTNY.sdf', '/opt/xchem-fragalysis-2/maxwin/BulkDock/OUTPUTS/openbind_xx01zvns2b_c2_elabs_1LSYIIV.sdf']

>  <tags>  (407) 
syndirella_placed,openbind_xx01zvns2b_c2_elabs,openbind_xx01zvns2b_c2_elabs_scored_6.2plus,syndirella_product,openbind_xx01zvns2b_c2_elabs_scored,openbind_xx01zvns2b_c2_elabs_scored_top80percent,BulkDock Fragalysis export

>  <subsites>  (407) 
1 - Z4590/B/203/1

>  <smiles>  (407) 
CCc1cc(C(=O)Nc2ccc3c(c2)C(=O)N(COC)C3=O)c2c(C3CC3)nn(CC)c2n1

>  <HIPPO Pose ID>  (407) 
116505

>  <energy_score>  (407) 
-48.276213

>  <inchikey>  (407) 
MLQSSKBOZCQTSG-UHFFFAOYSA-N

>  <gnina_score_min>  (407) 
6.28

>  <gnina_score>  (407) 
6.185

>  <ref_mols>  (407) 
Z3556a

>  <HIPPO Compound ID>  (407) 
179885

>  <distance_score>  (407) 
0.629506

>  <rmsd(smina/fragmenstein)>  (407) 
0.673

>  <ref_pdb>  (407) 
Z3556a

>  <inspiration_score>  (407) 
None

$$$$
P116508
     RDKit          3D

 33 37  0  0  0  0  0  0  0  0999 V2000
   -9.3842    3.6465  -17.8746 C   0  0  0  0  0  0  0  0  0  0  0  0
   -8.1755    4.3568  -18.4384 C   0  0  0  0  0  0  0  0  0  0  0  0
   -7.1301    4.7488  -17.4253 C   0  0  0  0  0  0  0  0  0  0  0  0
   -7.4755    5.0758  -16.1144 C   0  0  0  0  0  0  0  0  0  0  0  0
   -6.4781    5.5102  -15.2412 C   0  0  0  0  0  0  0  0  0  0  0  0
   -6.8489    6.0687  -13.9357 C   0  0  0  0  0  0  0  0  0  0  0  0
   -6.7055    7.2531  -13.8250 O   0  0  0  0  0  0  0  0  0  0  0  0
   -7.3382    5.0919  -13.0071 N   0  0  0  0  0  0  0  0  0  0  0  0
   -7.7089    5.2086  -11.6657 C   0  0  0  0  0  0  0  0  0  0  0  0
   -7.7378    6.4720  -11.0456 C   0  0  0  0  0  0  0  0  0  0  0  0
   -8.0342    6.6047   -9.6898 C   0  0  0  0  0  0  0  0  0  0  0  0
   -8.3089    5.4580   -8.9749 C   0  0  0  0  0  0  0  0  0  0  0  0
   -8.3177    4.2032   -9.5844 C   0  0  0  0  0  0  0  0  0  0  0  0
   -8.0188    4.0571  -10.9323 C   0  0  0  0  0  0  0  0  0  0  0  0
   -8.6389    3.1636   -8.5518 C   0  0  0  0  0  0  0  0  0  0  0  0
   -9.0693    3.9445   -7.3684 N   0  0  0  0  0  0  0  0  0  0  0  0
   -8.9238    3.2533   -6.0925 C   0  0  0  0  0  0  0  0  0  0  0  0
   -7.7959    3.7194   -5.1511 C   0  0  0  0  0  0  0  0  0  0  0  0
   -8.1507    4.9121   -4.2407 C   0  0  0  0  0  0  0  0  0  0  0  0
   -9.0922    4.4982   -3.1081 C   0  0  0  0  0  0  0  0  0  0  0  0
   -6.8727    5.5086   -3.6453 C   0  0  0  0  0  0  0  0  0  0  0  0
   -8.5726    5.3123   -7.5116 C   0  0  0  0  0  0  0  0  0  0  0  0
   -5.1566    5.5686  -15.6962 C   0  0  0  0  0  0  0  0  0  0  0  0
   -3.8674    5.8985  -15.2208 C   0  0  0  0  0  0  0  0  0  0  0  0
   -3.5477    6.3186  -13.7571 C   0  0  0  0  0  0  0  0  0  0  0  0
   -3.6225    7.7781  -13.3889 C   0  0  0  0  0  0  0  0  0  0  0  0
   -2.2901    7.0934  -13.4520 C   0  0  0  0  0  0  0  0  0  0  0  0
   -2.9164    5.7739  -16.1547 N   0  0  0  0  0  0  0  0  0  0  0  0
   -3.6100    5.3955  -17.2508 N   0  0  0  0  0  0  0  0  0  0  0  0
   -2.9282    5.2179  -18.5156 C   0  0  0  0  0  0  0  0  0  0  0  0
   -2.8130    6.5183  -19.2904 C   0  0  0  0  0  0  0  0  0  0  0  0
   -4.9484    5.2313  -17.0231 C   0  0  0  0  0  0  0  0  0  0  0  0
   -5.8720    4.8440  -17.9199 N   0  0  0  0  0  0  0  0  0  0  0  0
  1  2  1  0
  2  3  1  0
  3  4  2  0
  4  5  1  0
  5  6  1  0
  6  7  2  0
  6  8  1  0
  8  9  1  0
  9 10  2  0
 10 11  1  0
 11 12  2  0
 12 13  1  0
 13 14  2  0
 13 15  1  0
 15 16  1  0
 16 17  1  0
 17 18  1  0
 18 19  1  0
 19 20  1  0
 19 21  1  0
 16 22  1  0
  5 23  2  0
 23 24  1  0
 24 25  1  0
 25 26  1  0
 26 27  1  0
 24 28  2  0
 28 29  1  0
 29 30  1  0
 30 31  1  0
 29 32  1  0
 32 33  2  0
 33  3  1  0
 14  9  1  0
 32 23  1  0
 22 12  1  0
 27 25  1  0
M  END
>  <name>  (408) 
P116508

>  <alias>  (408) 
None

>  <smina_score_min>  (408) 
-7.105

>  <exports>  (408) 
['/opt/xchem-fragalysis-2/maxwin/BulkDock/OUTPUTS/openbind_xx01zvns2b_c2_elabs_1LOUTNY.sdf', '/opt/xchem-fragalysis-2/maxwin/BulkDock/OUTPUTS/openbind_xx01zvns2b_c2_elabs_1LSYIIV.sdf']

>  <tags>  (408) 
syndirella_placed,openbind_xx01zvns2b_c2_elabs,openbind_xx01zvns2b_c2_elabs_scored_6.2plus,syndirella_product,openbind_xx01zvns2b_c2_elabs_scored,openbind_xx01zvns2b_c2_elabs_scored_top80percent,BulkDock Fragalysis export

>  <subsites>  (408) 
1 - Z4590/B/203/1

>  <smiles>  (408) 
CCc1cc(C(=O)Nc2ccc3c(c2)CN(CCC(C)C)C3)c2c(C3CC3)nn(CC)c2n1

>  <HIPPO Pose ID>  (408) 
116508

>  <energy_score>  (408) 
-68.295966

>  <inchikey>  (408) 
BZQPVCIKPGDPRB-UHFFFAOYSA-N

>  <gnina_score_min>  (408) 
6.567

>  <gnina_score>  (408) 
6.322

>  <ref_mols>  (408) 
Z3556a

>  <HIPPO Compound ID>  (408) 
179887

>  <distance_score>  (408) 
1.297574

>  <rmsd(smina/fragmenstein)>  (408) 
0.962

>  <ref_pdb>  (408) 
Z3556a

>  <inspiration_score>  (408) 
None

$$$$
P116511
     RDKit          3D

 33 37  0  0  0  0  0  0  0  0999 V2000
   -9.2416    4.0313  -18.2940 C   0  0  0  0  0  0  0  0  0  0  0  0
   -8.0058    4.4552  -17.5481 C   0  0  0  0  0  0  0  0  0  0  0  0
   -8.0021    4.3949  -16.1564 C   0  0  0  0  0  0  0  0  0  0  0  0
   -6.8176    4.7050  -15.4856 C   0  0  0  0  0  0  0  0  0  0  0  0
   -6.6542    4.4890  -14.0490 C   0  0  0  0  0  0  0  0  0  0  0  0
   -5.8258    3.7524  -13.6930 O   0  0  0  0  0  0  0  0  0  0  0  0
   -7.7021    5.2731  -13.2452 N   0  0  0  0  0  0  0  0  0  0  0  0
   -7.8854    5.3863  -11.8837 C   0  0  0  0  0  0  0  0  0  0  0  0
   -8.5992    6.4591  -11.3404 C   0  0  0  0  0  0  0  0  0  0  0  0
   -8.6893    6.6137   -9.9535 C   0  0  0  0  0  0  0  0  0  0  0  0
   -8.0840    5.6677   -9.1551 C   0  0  0  0  0  0  0  0  0  0  0  0
   -7.3932    4.6008   -9.7142 C   0  0  0  0  0  0  0  0  0  0  0  0
   -7.2891    4.4323  -11.0687 C   0  0  0  0  0  0  0  0  0  0  0  0
   -6.7627    3.7955   -8.6440 C   0  0  0  0  0  0  0  0  0  0  0  0
   -7.4615    4.2112   -7.3967 N   0  0  0  0  0  0  0  0  0  0  0  0
   -8.6031    3.3053   -7.2573 C   0  0  0  0  0  0  0  0  0  0  0  0
   -8.9869    3.1957   -5.7949 C   0  0  0  0  0  0  0  0  0  0  0  0
  -10.1965    2.2770   -5.6377 C   0  0  0  0  0  0  0  0  0  0  0  0
  -10.0952    1.0227   -6.4810 C   0  0  0  0  0  0  0  0  0  0  0  0
  -11.4464    2.9694   -6.0667 C   0  0  0  0  0  0  0  0  0  0  0  0
   -7.9771    5.5799   -7.6694 C   0  0  0  0  0  0  0  0  0  0  0  0
   -5.6932    5.0752  -16.2171 C   0  0  0  0  0  0  0  0  0  0  0  0
   -4.3452    5.3995  -15.9695 C   0  0  0  0  0  0  0  0  0  0  0  0
   -3.6622    5.6413  -17.0926 N   0  0  0  0  0  0  0  0  0  0  0  0
   -4.5849    5.4161  -18.0689 N   0  0  0  0  0  0  0  0  0  0  0  0
   -4.1860    5.4088  -19.4653 C   0  0  0  0  0  0  0  0  0  0  0  0
   -4.2493    6.7814  -20.0748 C   0  0  0  0  0  0  0  0  0  0  0  0
   -3.7448    7.9748  -19.5904 C   0  0  0  0  0  0  0  0  0  0  0  0
   -3.9810    9.0671  -20.4738 C   0  0  0  0  0  0  0  0  0  0  0  0
   -4.6458    8.6727  -21.6123 C   0  0  0  0  0  0  0  0  0  0  0  0
   -4.9795    6.9967  -21.6128 S   0  0  0  0  0  0  0  0  0  0  0  0
   -5.8288    5.1055  -17.5891 C   0  0  0  0  0  0  0  0  0  0  0  0
   -6.9382    4.8277  -18.2982 N   0  0  0  0  0  0  0  0  0  0  0  0
  1  2  1  0
  2  3  2  0
  3  4  1  0
  4  5  1  0
  5  6  2  0
  5  7  1  0
  7  8  1  0
  8  9  2  0
  9 10  1  0
 10 11  2  0
 11 12  1  0
 12 13  2  0
 12 14  1  0
 14 15  1  0
 15 16  1  0
 16 17  1  0
 17 18  1  0
 18 19  1  0
 18 20  1  0
 15 21  1  0
  4 22  2  0
 22 23  1  0
 23 24  2  0
 24 25  1  0
 25 26  1  0
 26 27  1  0
 27 28  2  0
 28 29  1  0
 29 30  2  0
 30 31  1  0
 25 32  1  0
 32 33  2  0
 33  2  1  0
 13  8  1  0
 32 22  1  0
 21 11  1  0
 31 27  1  0
M  END
>  <name>  (409) 
P116511

>  <alias>  (409) 
None

>  <smina_score_min>  (409) 
-7.906

>  <exports>  (409) 
['/opt/xchem-fragalysis-2/maxwin/BulkDock/OUTPUTS/openbind_xx01zvns2b_c2_elabs_1LOUTNY.sdf', '/opt/xchem-fragalysis-2/maxwin/BulkDock/OUTPUTS/openbind_xx01zvns2b_c2_elabs_1LSYIIV.sdf']

>  <tags>  (409) 
syndirella_placed,openbind_xx01zvns2b_c2_elabs,openbind_xx01zvns2b_c2_elabs_scored_6.2plus,syndirella_product,openbind_xx01zvns2b_c2_elabs_scored,openbind_xx01zvns2b_c2_elabs_scored_top80percent,BulkDock Fragalysis export

>  <subsites>  (409) 
1 - Z4590/B/203/1

>  <smiles>  (409) 
Cc1cc(C(=O)Nc2ccc3c(c2)CN(CCC(C)C)C3)c2cnn(Cc3cccs3)c2n1

>  <HIPPO Pose ID>  (409) 
116511

>  <energy_score>  (409) 
-49.723774

>  <inchikey>  (409) 
HJWAFNBMCUSKNC-UHFFFAOYSA-N

>  <gnina_score_min>  (409) 
6.323

>  <gnina_score>  (409) 
6.435

>  <ref_mols>  (409) 
Z3556a

>  <HIPPO Compound ID>  (409) 
179890

>  <distance_score>  (409) 
1.45413

>  <rmsd(smina/fragmenstein)>  (409) 
0.958

>  <ref_pdb>  (409) 
Z3556a

>  <inspiration_score>  (409) 
None

$$$$
P116514
     RDKit          3D

 33 37  0  0  0  0  0  0  0  0999 V2000
   -8.7347    3.9403   -3.9284 C   0  0  0  0  0  0  0  0  0  0  0  0
   -8.1292    3.2961   -5.0359 O   0  0  0  0  0  0  0  0  0  0  0  0
   -9.1011    2.7875   -5.9578 C   0  0  0  0  0  0  0  0  0  0  0  0
   -8.8067    3.3246   -7.2480 N   0  0  0  0  0  0  0  0  0  0  0  0
   -8.6649    4.6541   -7.4756 C   0  0  0  0  0  0  0  0  0  0  0  0
   -8.7601    5.6084   -6.7252 O   0  0  0  0  0  0  0  0  0  0  0  0
   -8.4285    4.7889   -8.9004 C   0  0  0  0  0  0  0  0  0  0  0  0
   -8.1381    5.9257   -9.6119 C   0  0  0  0  0  0  0  0  0  0  0  0
   -7.9702    5.7708  -10.9823 C   0  0  0  0  0  0  0  0  0  0  0  0
   -8.1017    4.5089  -11.6087 C   0  0  0  0  0  0  0  0  0  0  0  0
   -7.8858    4.4301  -12.9829 N   0  0  0  0  0  0  0  0  0  0  0  0
   -7.4812    5.5215  -13.9995 C   0  0  0  0  0  0  0  0  0  0  0  0
   -7.3406    6.6726  -13.8589 O   0  0  0  0  0  0  0  0  0  0  0  0
   -7.2558    5.0006  -15.3504 C   0  0  0  0  0  0  0  0  0  0  0  0
   -8.3009    4.4953  -16.1198 C   0  0  0  0  0  0  0  0  0  0  0  0
   -8.0887    4.3014  -17.4838 C   0  0  0  0  0  0  0  0  0  0  0  0
   -9.2324    3.8465  -18.3443 C   0  0  0  0  0  0  0  0  0  0  0  0
   -6.9126    4.5310  -18.1168 N   0  0  0  0  0  0  0  0  0  0  0  0
   -5.9320    4.9815  -17.3146 C   0  0  0  0  0  0  0  0  0  0  0  0
   -6.0179    5.2298  -15.9581 C   0  0  0  0  0  0  0  0  0  0  0  0
   -4.7399    5.7047  -15.5988 C   0  0  0  0  0  0  0  0  0  0  0  0
   -3.8863    5.7282  -16.6287 N   0  0  0  0  0  0  0  0  0  0  0  0
   -4.6554    5.3201  -17.6758 N   0  0  0  0  0  0  0  0  0  0  0  0
   -4.1018    5.2509  -19.0186 C   0  0  0  0  0  0  0  0  0  0  0  0
   -4.1342    6.5883  -19.7036 C   0  0  0  0  0  0  0  0  0  0  0  0
   -3.5836    7.7881  -19.2912 C   0  0  0  0  0  0  0  0  0  0  0  0
   -3.8052    8.8406  -20.2250 C   0  0  0  0  0  0  0  0  0  0  0  0
   -4.5077    8.4103  -21.3273 C   0  0  0  0  0  0  0  0  0  0  0  0
   -4.8957    6.7486  -21.2328 S   0  0  0  0  0  0  0  0  0  0  0  0
   -8.4208    3.3695  -10.8586 C   0  0  0  0  0  0  0  0  0  0  0  0
   -8.5746    3.5468   -9.4925 C   0  0  0  0  0  0  0  0  0  0  0  0
   -8.9260    2.6200   -8.4143 C   0  0  0  0  0  0  0  0  0  0  0  0
   -9.3403    1.4948   -8.5949 O   0  0  0  0  0  0  0  0  0  0  0  0
  1  2  1  0
  2  3  1  0
  3  4  1  0
  4  5  1  0
  5  6  2  0
  5  7  1  0
  7  8  2  0
  8  9  1  0
  9 10  2  0
 10 11  1  0
 11 12  1  0
 12 13  2  0
 12 14  1  0
 14 15  2  0
 15 16  1  0
 16 17  1  0
 16 18  2  0
 18 19  1  0
 19 20  2  0
 20 21  1  0
 21 22  2  0
 22 23  1  0
 23 24  1  0
 24 25  1  0
 25 26  2  0
 26 27  1  0
 27 28  2  0
 28 29  1  0
 10 30  1  0
 30 31  2  0
 31 32  1  0
 32 33  2  0
 32  4  1  0
 31  7  1  0
 20 14  1  0
 29 25  1  0
 23 19  1  0
M  END
>  <name>  (410) 
P116514

>  <alias>  (410) 
None

>  <smina_score_min>  (410) 
-8.293

>  <exports>  (410) 
['/opt/xchem-fragalysis-2/maxwin/BulkDock/OUTPUTS/openbind_xx01zvns2b_c2_elabs_1LOUTNY.sdf', '/opt/xchem-fragalysis-2/maxwin/BulkDock/OUTPUTS/openbind_xx01zvns2b_c2_elabs_1LSYIIV.sdf']

>  <tags>  (410) 
syndirella_placed,openbind_xx01zvns2b_c2_elabs,openbind_xx01zvns2b_c2_elabs_scored_6.2plus,syndirella_product,openbind_xx01zvns2b_c2_elabs_scored,openbind_xx01zvns2b_c2_elabs_scored_top80percent,BulkDock Fragalysis export

>  <subsites>  (410) 
1 - Z4590/B/203/1

>  <smiles>  (410) 
COCN1C(=O)c2ccc(NC(=O)c3cc(C)nc4c3cnn4Cc3cccs3)cc2C1=O

>  <HIPPO Pose ID>  (410) 
116514

>  <energy_score>  (410) 
-54.317505

>  <inchikey>  (410) 
VEOWBCCGSGSEGZ-UHFFFAOYSA-N

>  <gnina_score_min>  (410) 
6.308

>  <gnina_score>  (410) 
6.233

>  <ref_mols>  (410) 
Z3556a

>  <HIPPO Compound ID>  (410) 
179892

>  <distance_score>  (410) 
0.606033

>  <rmsd(smina/fragmenstein)>  (410) 
0.826

>  <ref_pdb>  (410) 
Z3556a

>  <inspiration_score>  (410) 
None

$$$$
P116515
     RDKit          3D

 33 37  0  0  0  0  0  0  0  0999 V2000
   -8.8127    4.6448   -3.8805 C   0  0  0  0  0  0  0  0  0  0  0  0
   -9.7387    3.5718   -3.8764 O   0  0  0  0  0  0  0  0  0  0  0  0
  -10.2343    3.2268   -5.1782 C   0  0  0  0  0  0  0  0  0  0  0  0
   -9.2162    2.4997   -6.0733 C   0  0  0  0  0  0  0  0  0  0  0  0
   -9.0613    3.1070   -7.3793 N   0  0  0  0  0  0  0  0  0  0  0  0
   -8.8516    2.3036   -8.5827 C   0  0  0  0  0  0  0  0  0  0  0  0
   -8.5262    3.3479   -9.6036 C   0  0  0  0  0  0  0  0  0  0  0  0
   -8.3494    3.2614  -10.9759 C   0  0  0  0  0  0  0  0  0  0  0  0
   -8.0526    4.4431  -11.6728 C   0  0  0  0  0  0  0  0  0  0  0  0
   -7.8527    4.4206  -13.0500 N   0  0  0  0  0  0  0  0  0  0  0  0
   -7.3643    5.5261  -14.0105 C   0  0  0  0  0  0  0  0  0  0  0  0
   -7.1261    6.6516  -13.8106 O   0  0  0  0  0  0  0  0  0  0  0  0
   -7.1813    5.0419  -15.3806 C   0  0  0  0  0  0  0  0  0  0  0  0
   -8.2464    4.5458  -16.1303 C   0  0  0  0  0  0  0  0  0  0  0  0
   -8.0571    4.3357  -17.4947 C   0  0  0  0  0  0  0  0  0  0  0  0
   -9.2162    3.8789  -18.3342 C   0  0  0  0  0  0  0  0  0  0  0  0
   -6.8861    4.5435  -18.1441 N   0  0  0  0  0  0  0  0  0  0  0  0
   -5.8882    4.9867  -17.3598 C   0  0  0  0  0  0  0  0  0  0  0  0
   -5.9494    5.2480  -16.0056 C   0  0  0  0  0  0  0  0  0  0  0  0
   -4.6546    5.6921  -15.6666 C   0  0  0  0  0  0  0  0  0  0  0  0
   -3.8132    5.6774  -16.7075 N   0  0  0  0  0  0  0  0  0  0  0  0
   -4.6099    5.2943  -17.7406 N   0  0  0  0  0  0  0  0  0  0  0  0
   -4.0763    5.1812  -19.0859 C   0  0  0  0  0  0  0  0  0  0  0  0
   -4.0644    6.5044  -19.7890 C   0  0  0  0  0  0  0  0  0  0  0  0
   -5.0944    7.0978  -20.4935 C   0  0  0  0  0  0  0  0  0  0  0  0
   -4.7158    8.3482  -21.0591 C   0  0  0  0  0  0  0  0  0  0  0  0
   -3.4108    8.6717  -20.7633 C   0  0  0  0  0  0  0  0  0  0  0  0
   -2.6471    7.4656  -19.8218 S   0  0  0  0  0  0  0  0  0  0  0  0
   -7.9387    5.6749  -10.9957 C   0  0  0  0  0  0  0  0  0  0  0  0
   -8.1069    5.7551   -9.6219 C   0  0  0  0  0  0  0  0  0  0  0  0
   -8.3960    4.5811   -8.9677 C   0  0  0  0  0  0  0  0  0  0  0  0
   -8.6544    4.4119   -7.5476 C   0  0  0  0  0  0  0  0  0  0  0  0
   -8.5242    5.3044   -6.7317 O   0  0  0  0  0  0  0  0  0  0  0  0
  1  2  1  0
  2  3  1  0
  3  4  1  0
  4  5  1  0
  5  6  1  0
  6  7  1  0
  7  8  2  0
  8  9  1  0
  9 10  1  0
 10 11  1  0
 11 12  2  0
 11 13  1  0
 13 14  2  0
 14 15  1  0
 15 16  1  0
 15 17  2  0
 17 18  1  0
 18 19  2  0
 19 20  1  0
 20 21  2  0
 21 22  1  0
 22 23  1  0
 23 24  1  0
 24 25  2  0
 25 26  1  0
 26 27  2  0
 27 28  1  0
  9 29  2  0
 29 30  1  0
 30 31  2  0
 31 32  1  0
 32 33  2  0
 32  5  1  0
 31  7  1  0
 19 13  1  0
 28 24  1  0
 22 18  1  0
M  END
>  <name>  (411) 
P116515

>  <alias>  (411) 
None

>  <smina_score_min>  (411) 
-8.228

>  <exports>  (411) 
['/opt/xchem-fragalysis-2/maxwin/BulkDock/OUTPUTS/openbind_xx01zvns2b_c2_elabs_1LOUTNY.sdf', '/opt/xchem-fragalysis-2/maxwin/BulkDock/OUTPUTS/openbind_xx01zvns2b_c2_elabs_1LSYIIV.sdf']

>  <tags>  (411) 
syndirella_placed,openbind_xx01zvns2b_c2_elabs,openbind_xx01zvns2b_c2_elabs_scored_6.2plus,syndirella_product,openbind_xx01zvns2b_c2_elabs_scored,openbind_xx01zvns2b_c2_elabs_scored_top80percent,BulkDock Fragalysis export

>  <subsites>  (411) 
1 - Z4590/B/203/1

>  <smiles>  (411) 
COCCN1Cc2cc(NC(=O)c3cc(C)nc4c3cnn4Cc3cccs3)ccc2C1=O

>  <HIPPO Pose ID>  (411) 
116515

>  <energy_score>  (411) 
-26.580599

>  <inchikey>  (411) 
TXDNTZXSJUOJPT-UHFFFAOYSA-N

>  <gnina_score_min>  (411) 
6.484

>  <gnina_score>  (411) 
6.247

>  <ref_mols>  (411) 
Z3556a

>  <HIPPO Compound ID>  (411) 
179894

>  <distance_score>  (411) 
0.547331

>  <rmsd(smina/fragmenstein)>  (411) 
1.008

>  <ref_pdb>  (411) 
Z3556a

>  <inspiration_score>  (411) 
None

$$$$
P116516
     RDKit          3D

 33 37  0  0  0  0  0  0  0  0999 V2000
   -9.2001    3.8930  -18.2736 C   0  0  0  0  0  0  0  0  0  0  0  0
   -8.0367    4.3844  -17.4595 C   0  0  0  0  0  0  0  0  0  0  0  0
   -8.2013    4.6069  -16.0936 C   0  0  0  0  0  0  0  0  0  0  0  0
   -7.1292    5.1305  -15.3686 C   0  0  0  0  0  0  0  0  0  0  0  0
   -7.2801    5.5865  -13.9825 C   0  0  0  0  0  0  0  0  0  0  0  0
   -7.0469    6.7026  -13.7388 O   0  0  0  0  0  0  0  0  0  0  0  0
   -7.7480    4.4420  -13.0668 N   0  0  0  0  0  0  0  0  0  0  0  0
   -7.9307    4.4049  -11.6906 C   0  0  0  0  0  0  0  0  0  0  0  0
   -7.8262    5.5778  -10.9191 C   0  0  0  0  0  0  0  0  0  0  0  0
   -8.0316    5.5528   -9.5392 C   0  0  0  0  0  0  0  0  0  0  0  0
   -8.3541    4.3428   -8.9658 C   0  0  0  0  0  0  0  0  0  0  0  0
   -8.4499    3.1755   -9.7317 C   0  0  0  0  0  0  0  0  0  0  0  0
   -8.2330    3.1828  -11.0936 C   0  0  0  0  0  0  0  0  0  0  0  0
   -8.8530    2.0466   -8.8417 C   0  0  0  0  0  0  0  0  0  0  0  0
   -9.4423    2.7558   -7.6993 N   0  0  0  0  0  0  0  0  0  0  0  0
   -9.5397    1.9540   -6.4884 C   0  0  0  0  0  0  0  0  0  0  0  0
  -10.3210    2.6230   -5.3508 C   0  0  0  0  0  0  0  0  0  0  0  0
  -11.1055    1.7261   -4.7024 F   0  0  0  0  0  0  0  0  0  0  0  0
   -9.5192    3.2261   -4.4445 F   0  0  0  0  0  0  0  0  0  0  0  0
  -11.1599    3.5814   -5.8161 F   0  0  0  0  0  0  0  0  0  0  0  0
   -8.6999    4.0159   -7.5503 C   0  0  0  0  0  0  0  0  0  0  0  0
   -5.9154    5.3489  -16.0186 C   0  0  0  0  0  0  0  0  0  0  0  0
   -4.6222    5.8131  -15.7105 C   0  0  0  0  0  0  0  0  0  0  0  0
   -3.8153    5.8383  -16.7764 N   0  0  0  0  0  0  0  0  0  0  0  0
   -4.6253    5.4391  -17.7926 N   0  0  0  0  0  0  0  0  0  0  0  0
   -4.2279    5.4584  -19.1951 C   0  0  0  0  0  0  0  0  0  0  0  0
   -2.8651    6.0239  -19.4541 C   0  0  0  0  0  0  0  0  0  0  0  0
   -1.6559    5.3574  -19.4873 C   0  0  0  0  0  0  0  0  0  0  0  0
   -0.5665    6.2243  -19.7885 C   0  0  0  0  0  0  0  0  0  0  0  0
   -0.9779    7.5237  -19.9775 C   0  0  0  0  0  0  0  0  0  0  0  0
   -2.6705    7.6925  -19.8028 S   0  0  0  0  0  0  0  0  0  0  0  0
   -5.8807    5.0818  -17.3718 C   0  0  0  0  0  0  0  0  0  0  0  0
   -6.8853    4.6144  -18.1337 N   0  0  0  0  0  0  0  0  0  0  0  0
  1  2  1  0
  2  3  2  0
  3  4  1  0
  4  5  1  0
  5  6  2  0
  5  7  1  0
  7  8  1  0
  8  9  2  0
  9 10  1  0
 10 11  2  0
 11 12  1  0
 12 13  2  0
 12 14  1  0
 14 15  1  0
 15 16  1  0
 16 17  1  0
 17 18  1  0
 17 19  1  0
 17 20  1  0
 15 21  1  0
  4 22  2  0
 22 23  1  0
 23 24  2  0
 24 25  1  0
 25 26  1  0
 26 27  1  0
 27 28  2  0
 28 29  1  0
 29 30  2  0
 30 31  1  0
 25 32  1  0
 32 33  2  0
 33  2  1  0
 13  8  1  0
 32 22  1  0
 21 11  1  0
 31 27  1  0
M  END
>  <name>  (412) 
P116516

>  <alias>  (412) 
None

>  <smina_score_min>  (412) 
-9.195

>  <exports>  (412) 
['/opt/xchem-fragalysis-2/maxwin/BulkDock/OUTPUTS/openbind_xx01zvns2b_c2_elabs_1LOUTNY.sdf', '/opt/xchem-fragalysis-2/maxwin/BulkDock/OUTPUTS/openbind_xx01zvns2b_c2_elabs_1LSYIIV.sdf']

>  <tags>  (412) 
syndirella_placed,openbind_xx01zvns2b_c2_elabs,openbind_xx01zvns2b_c2_elabs_scored_6.2plus,syndirella_product,openbind_xx01zvns2b_c2_elabs_scored,openbind_xx01zvns2b_c2_elabs_scored_top80percent,BulkDock Fragalysis export

>  <subsites>  (412) 
1 - Z4590/B/203/1

>  <smiles>  (412) 
Cc1cc(C(=O)Nc2ccc3c(c2)CN(CC(F)(F)F)C3)c2cnn(Cc3cccs3)c2n1

>  <HIPPO Pose ID>  (412) 
116516

>  <energy_score>  (412) 
-48.322912

>  <inchikey>  (412) 
PXQHWQADTUGFGB-UHFFFAOYSA-N

>  <gnina_score_min>  (412) 
6.358

>  <gnina_score>  (412) 
6.219

>  <ref_mols>  (412) 
Z3556a

>  <HIPPO Compound ID>  (412) 
179895

>  <distance_score>  (412) 
0.568073

>  <rmsd(smina/fragmenstein)>  (412) 
0.843

>  <ref_pdb>  (412) 
Z3556a

>  <inspiration_score>  (412) 
None

$$$$
P116521
     RDKit          3D

 33 37  0  0  0  0  0  0  0  0999 V2000
   -9.3894    2.9373  -18.1418 C   0  0  0  0  0  0  0  0  0  0  0  0
   -9.2107    4.4067  -17.9365 C   0  0  0  0  0  0  0  0  0  0  0  0
   -7.9781    4.6622  -17.1148 C   0  0  0  0  0  0  0  0  0  0  0  0
   -8.0618    4.7690  -15.7293 C   0  0  0  0  0  0  0  0  0  0  0  0
   -6.9014    5.0597  -15.0128 C   0  0  0  0  0  0  0  0  0  0  0  0
   -6.9790    5.4549  -13.5955 C   0  0  0  0  0  0  0  0  0  0  0  0
   -6.6609    6.5512  -13.3445 O   0  0  0  0  0  0  0  0  0  0  0  0
   -7.4994    4.3246  -12.6734 N   0  0  0  0  0  0  0  0  0  0  0  0
   -7.8161    4.3373  -11.3110 C   0  0  0  0  0  0  0  0  0  0  0  0
   -7.6239    5.5243  -10.5675 C   0  0  0  0  0  0  0  0  0  0  0  0
   -7.9180    5.5905   -9.2033 C   0  0  0  0  0  0  0  0  0  0  0  0
   -8.3933    4.4439   -8.6096 C   0  0  0  0  0  0  0  0  0  0  0  0
   -8.5894    3.2764   -9.3241 C   0  0  0  0  0  0  0  0  0  0  0  0
   -8.3148    3.1885  -10.6832 C   0  0  0  0  0  0  0  0  0  0  0  0
   -9.1743    2.3127   -8.3908 C   0  0  0  0  0  0  0  0  0  0  0  0
   -9.5637    1.2077   -8.6992 O   0  0  0  0  0  0  0  0  0  0  0  0
   -9.2766    2.9372   -7.1800 N   0  0  0  0  0  0  0  0  0  0  0  0
   -9.9758    2.3713   -6.0567 C   0  0  0  0  0  0  0  0  0  0  0  0
   -8.8458    4.2266   -7.2378 C   0  0  0  0  0  0  0  0  0  0  0  0
   -8.8671    5.0939   -6.3833 O   0  0  0  0  0  0  0  0  0  0  0  0
   -5.6871    5.1782  -15.7095 C   0  0  0  0  0  0  0  0  0  0  0  0
   -4.3225    5.4153  -15.4224 C   0  0  0  0  0  0  0  0  0  0  0  0
   -3.6850    5.6265  -14.0979 C   0  0  0  0  0  0  0  0  0  0  0  0
   -3.5643    5.4043  -16.5254 N   0  0  0  0  0  0  0  0  0  0  0  0
   -4.4431    5.2318  -17.5589 N   0  0  0  0  0  0  0  0  0  0  0  0
   -3.9780    5.2666  -18.9095 C   0  0  0  0  0  0  0  0  0  0  0  0
   -4.8630    5.3005  -19.9977 C   0  0  0  0  0  0  0  0  0  0  0  0
   -4.3754    5.3407  -21.3079 C   0  0  0  0  0  0  0  0  0  0  0  0
   -3.0036    5.3367  -21.5448 C   0  0  0  0  0  0  0  0  0  0  0  0
   -2.1166    5.3041  -20.4711 C   0  0  0  0  0  0  0  0  0  0  0  0
   -2.5972    5.2771  -19.1594 C   0  0  0  0  0  0  0  0  0  0  0  0
   -5.7365    5.0484  -17.0890 C   0  0  0  0  0  0  0  0  0  0  0  0
   -6.8397    4.7958  -17.8165 N   0  0  0  0  0  0  0  0  0  0  0  0
  1  2  1  0
  2  3  1  0
  3  4  2  0
  4  5  1  0
  5  6  1  0
  6  7  2  0
  6  8  1  0
  8  9  1  0
  9 10  2  0
 10 11  1  0
 11 12  2  0
 12 13  1  0
 13 14  2  0
 13 15  1  0
 15 16  2  0
 15 17  1  0
 17 18  1  0
 17 19  1  0
 19 20  2  0
  5 21  2  0
 21 22  1  0
 22 23  1  0
 22 24  2  0
 24 25  1  0
 25 26  1  0
 26 27  2  0
 27 28  1  0
 28 29  2  0
 29 30  1  0
 30 31  2  0
 25 32  1  0
 32 33  2  0
 33  3  1  0
 14  9  1  0
 32 21  1  0
 19 12  1  0
 31 26  1  0
M  END
>  <name>  (413) 
P116521

>  <alias>  (413) 
None

>  <smina_score_min>  (413) 
-8.905

>  <exports>  (413) 
['/opt/xchem-fragalysis-2/maxwin/BulkDock/OUTPUTS/openbind_xx01zvns2b_c2_elabs_1LOUTNY.sdf', '/opt/xchem-fragalysis-2/maxwin/BulkDock/OUTPUTS/openbind_xx01zvns2b_c2_elabs_1LSYIIV.sdf']

>  <tags>  (413) 
syndirella_placed,openbind_xx01zvns2b_c2_elabs,openbind_xx01zvns2b_c2_elabs_scored_6.2plus,syndirella_product,openbind_xx01zvns2b_c2_elabs_scored,openbind_xx01zvns2b_c2_elabs_scored_top80percent,BulkDock Fragalysis export

>  <subsites>  (413) 
1 - Z4590/B/203/1

>  <smiles>  (413) 
CCc1cc(C(=O)Nc2ccc3c(c2)C(=O)N(C)C3=O)c2c(C)nn(-c3ccccc3)c2n1

>  <HIPPO Pose ID>  (413) 
116521

>  <energy_score>  (413) 
-46.516428

>  <inchikey>  (413) 
MMUPYHOYCORSEK-UHFFFAOYSA-N

>  <gnina_score_min>  (413) 
6.422

>  <gnina_score>  (413) 
6.423

>  <ref_mols>  (413) 
Z3556a

>  <HIPPO Compound ID>  (413) 
179900

>  <distance_score>  (413) 
0.528716

>  <rmsd(smina/fragmenstein)>  (413) 
0.595

>  <ref_pdb>  (413) 
Z3556a

>  <inspiration_score>  (413) 
None

$$$$
P116522
     RDKit          3D

 33 37  0  0  0  0  0  0  0  0999 V2000
   -9.1380    4.9528   -4.4366 C   0  0  0  0  0  0  0  0  0  0  0  0
   -9.1014    3.4537   -4.6853 C   0  0  0  0  0  0  0  0  0  0  0  0
   -9.5580    2.9640   -6.0721 C   0  0  0  0  0  0  0  0  0  0  0  0
   -8.6276    3.3002   -7.1379 N   0  0  0  0  0  0  0  0  0  0  0  0
   -8.5354    4.7268   -7.4279 C   0  0  0  0  0  0  0  0  0  0  0  0
   -8.3251    4.8142   -8.8930 C   0  0  0  0  0  0  0  0  0  0  0  0
   -8.0300    5.9438   -9.6211 C   0  0  0  0  0  0  0  0  0  0  0  0
   -7.8674    5.7976  -10.9893 C   0  0  0  0  0  0  0  0  0  0  0  0
   -8.0015    4.5421  -11.6092 C   0  0  0  0  0  0  0  0  0  0  0  0
   -7.7762    4.4562  -12.9807 N   0  0  0  0  0  0  0  0  0  0  0  0
   -7.3767    5.5451  -14.0025 C   0  0  0  0  0  0  0  0  0  0  0  0
   -7.2490    6.6987  -13.8689 O   0  0  0  0  0  0  0  0  0  0  0  0
   -7.1610    5.0180  -15.3501 C   0  0  0  0  0  0  0  0  0  0  0  0
   -8.2156    4.4608  -16.0647 C   0  0  0  0  0  0  0  0  0  0  0  0
   -8.0279    4.1976  -17.4156 C   0  0  0  0  0  0  0  0  0  0  0  0
   -9.1107    3.5143  -18.2031 C   0  0  0  0  0  0  0  0  0  0  0  0
  -10.3419    4.3596  -18.4165 C   0  0  0  0  0  0  0  0  0  0  0  0
   -6.8952    4.4762  -18.0915 N   0  0  0  0  0  0  0  0  0  0  0  0
   -5.8827    4.9664  -17.3466 C   0  0  0  0  0  0  0  0  0  0  0  0
   -5.9311    5.2287  -15.9880 C   0  0  0  0  0  0  0  0  0  0  0  0
   -4.6262    5.6586  -15.6518 C   0  0  0  0  0  0  0  0  0  0  0  0
   -4.1057    6.0609  -14.3205 C   0  0  0  0  0  0  0  0  0  0  0  0
   -3.8037    5.6374  -16.7073 N   0  0  0  0  0  0  0  0  0  0  0  0
   -4.5973    5.2858  -17.7639 N   0  0  0  0  0  0  0  0  0  0  0  0
   -4.0710    5.3027  -19.0886 C   0  0  0  0  0  0  0  0  0  0  0  0
   -4.9120    5.2778  -20.2102 C   0  0  0  0  0  0  0  0  0  0  0  0
   -4.3720    5.3205  -21.4983 C   0  0  0  0  0  0  0  0  0  0  0  0
   -2.9916    5.3645  -21.6780 C   0  0  0  0  0  0  0  0  0  0  0  0
   -2.1485    5.3849  -20.5686 C   0  0  0  0  0  0  0  0  0  0  0  0
   -2.6828    5.3690  -19.2779 C   0  0  0  0  0  0  0  0  0  0  0  0
   -8.3321    3.4065  -10.8562 C   0  0  0  0  0  0  0  0  0  0  0  0
   -8.4916    3.5640   -9.4854 C   0  0  0  0  0  0  0  0  0  0  0  0
   -8.8759    2.5813   -8.4160 C   0  0  0  0  0  0  0  0  0  0  0  0
  1  2  1  0
  2  3  1  0
  3  4  1  0
  4  5  1  0
  5  6  1  0
  6  7  2  0
  7  8  1  0
  8  9  2  0
  9 10  1  0
 10 11  1  0
 11 12  2  0
 11 13  1  0
 13 14  2  0
 14 15  1  0
 15 16  1  0
 16 17  1  0
 15 18  2  0
 18 19  1  0
 19 20  2  0
 20 21  1  0
 21 22  1  0
 21 23  2  0
 23 24  1  0
 24 25  1  0
 25 26  2  0
 26 27  1  0
 27 28  2  0
 28 29  1  0
 29 30  2  0
  9 31  1  0
 31 32  2  0
 32 33  1  0
 33  4  1  0
 32  6  1  0
 20 13  1  0
 30 25  1  0
 24 19  1  0
M  END
>  <name>  (414) 
P116522

>  <alias>  (414) 
None

>  <smina_score_min>  (414) 
-8.22

>  <exports>  (414) 
['/opt/xchem-fragalysis-2/maxwin/BulkDock/OUTPUTS/openbind_xx01zvns2b_c2_elabs_1LOUTNY.sdf', '/opt/xchem-fragalysis-2/maxwin/BulkDock/OUTPUTS/openbind_xx01zvns2b_c2_elabs_1LSYIIV.sdf']

>  <tags>  (414) 
syndirella_placed,openbind_xx01zvns2b_c2_elabs,openbind_xx01zvns2b_c2_elabs_scored_6.2plus,syndirella_product,openbind_xx01zvns2b_c2_elabs_scored,openbind_xx01zvns2b_c2_elabs_scored_top80percent,BulkDock Fragalysis export

>  <subsites>  (414) 
1 - Z4590/B/203/1

>  <smiles>  (414) 
CCCN1Cc2ccc(NC(=O)c3cc(CC)nc4c3c(C)nn4-c3ccccc3)cc2C1

>  <HIPPO Pose ID>  (414) 
116522

>  <energy_score>  (414) 
-29.597083

>  <inchikey>  (414) 
WUOQGXXWBUXLHQ-UHFFFAOYSA-N

>  <gnina_score_min>  (414) 
6.505

>  <gnina_score>  (414) 
6.552

>  <ref_mols>  (414) 
Z3556a

>  <HIPPO Compound ID>  (414) 
179902

>  <distance_score>  (414) 
0.642629

>  <rmsd(smina/fragmenstein)>  (414) 
0.418

>  <ref_pdb>  (414) 
Z3556a

>  <inspiration_score>  (414) 
None

$$$$
P116523
     RDKit          3D

 33 37  0  0  0  0  0  0  0  0999 V2000
   -8.8748    3.6197  -19.0741 C   0  0  0  0  0  0  0  0  0  0  0  0
   -9.1053    4.0818  -17.6596 C   0  0  0  0  0  0  0  0  0  0  0  0
   -7.8601    4.5509  -16.9621 C   0  0  0  0  0  0  0  0  0  0  0  0
   -7.9213    4.8200  -15.6071 C   0  0  0  0  0  0  0  0  0  0  0  0
   -6.7608    5.2442  -14.9604 C   0  0  0  0  0  0  0  0  0  0  0  0
   -6.8306    5.6797  -13.5612 C   0  0  0  0  0  0  0  0  0  0  0  0
   -6.4189    6.7376  -13.2914 O   0  0  0  0  0  0  0  0  0  0  0  0
   -7.5528    4.6339  -12.6854 N   0  0  0  0  0  0  0  0  0  0  0  0
   -7.8247    4.6311  -11.3259 C   0  0  0  0  0  0  0  0  0  0  0  0
   -7.5857    5.7918  -10.5632 C   0  0  0  0  0  0  0  0  0  0  0  0
   -7.8202    5.8185   -9.1896 C   0  0  0  0  0  0  0  0  0  0  0  0
   -8.2974    4.6684   -8.6048 C   0  0  0  0  0  0  0  0  0  0  0  0
   -8.5600    3.5345   -9.3767 C   0  0  0  0  0  0  0  0  0  0  0  0
   -8.3367    3.4786  -10.7364 C   0  0  0  0  0  0  0  0  0  0  0  0
   -9.1025    2.5090   -8.4897 C   0  0  0  0  0  0  0  0  0  0  0  0
   -9.4964    1.4197   -8.8411 O   0  0  0  0  0  0  0  0  0  0  0  0
   -9.1109    3.0555   -7.2265 N   0  0  0  0  0  0  0  0  0  0  0  0
   -9.5244    2.3408   -6.0534 C   0  0  0  0  0  0  0  0  0  0  0  0
  -10.9098    2.7422   -5.6108 C   0  0  0  0  0  0  0  0  0  0  0  0
   -8.6092    4.4044   -7.1759 C   0  0  0  0  0  0  0  0  0  0  0  0
   -5.5670    5.3517  -15.6860 C   0  0  0  0  0  0  0  0  0  0  0  0
   -4.2034    5.6441  -15.4556 C   0  0  0  0  0  0  0  0  0  0  0  0
   -3.5321    5.9645  -14.1704 C   0  0  0  0  0  0  0  0  0  0  0  0
   -3.4763    5.5741  -16.5776 N   0  0  0  0  0  0  0  0  0  0  0  0
   -4.3800    5.3129  -17.5690 N   0  0  0  0  0  0  0  0  0  0  0  0
   -3.9635    5.2984  -18.9342 C   0  0  0  0  0  0  0  0  0  0  0  0
   -2.5934    5.2976  -19.2353 C   0  0  0  0  0  0  0  0  0  0  0  0
   -2.1634    5.2839  -20.5647 C   0  0  0  0  0  0  0  0  0  0  0  0
   -3.0910    5.2892  -21.6043 C   0  0  0  0  0  0  0  0  0  0  0  0
   -4.4529    5.3063  -21.3156 C   0  0  0  0  0  0  0  0  0  0  0  0
   -4.8897    5.3057  -19.9874 C   0  0  0  0  0  0  0  0  0  0  0  0
   -5.6475    5.1050  -17.0450 C   0  0  0  0  0  0  0  0  0  0  0  0
   -6.7536    4.7244  -17.7056 N   0  0  0  0  0  0  0  0  0  0  0  0
  1  2  1  0
  2  3  1  0
  3  4  2  0
  4  5  1  0
  5  6  1  0
  6  7  2  0
  6  8  1  0
  8  9  1  0
  9 10  2  0
 10 11  1  0
 11 12  2  0
 12 13  1  0
 13 14  2  0
 13 15  1  0
 15 16  2  0
 15 17  1  0
 17 18  1  0
 18 19  1  0
 17 20  1  0
  5 21  2  0
 21 22  1  0
 22 23  1  0
 22 24  2  0
 24 25  1  0
 25 26  1  0
 26 27  2  0
 27 28  1  0
 28 29  2  0
 29 30  1  0
 30 31  2  0
 25 32  1  0
 32 33  2  0
 33  3  1  0
 14  9  1  0
 32 21  1  0
 20 12  1  0
 31 26  1  0
M  END
>  <name>  (415) 
P116523

>  <alias>  (415) 
None

>  <smina_score_min>  (415) 
-8.866

>  <exports>  (415) 
['/opt/xchem-fragalysis-2/maxwin/BulkDock/OUTPUTS/openbind_xx01zvns2b_c2_elabs_1LOUTNY.sdf', '/opt/xchem-fragalysis-2/maxwin/BulkDock/OUTPUTS/openbind_xx01zvns2b_c2_elabs_1LSYIIV.sdf']

>  <tags>  (415) 
syndirella_placed,openbind_xx01zvns2b_c2_elabs,openbind_xx01zvns2b_c2_elabs_scored_6.2plus,syndirella_product,openbind_xx01zvns2b_c2_elabs_scored,openbind_xx01zvns2b_c2_elabs_scored_top80percent,BulkDock Fragalysis export

>  <subsites>  (415) 
1 - Z4590/B/203/1

>  <smiles>  (415) 
CCc1cc(C(=O)Nc2ccc3c(c2)C(=O)N(CC)C3)c2c(C)nn(-c3ccccc3)c2n1

>  <HIPPO Pose ID>  (415) 
116523

>  <energy_score>  (415) 
-42.380474

>  <inchikey>  (415) 
ISBLMQIPGGNNAE-UHFFFAOYSA-N

>  <gnina_score_min>  (415) 
6.482

>  <gnina_score>  (415) 
6.415

>  <ref_mols>  (415) 
Z3556a

>  <HIPPO Compound ID>  (415) 
179903

>  <distance_score>  (415) 
0.672285

>  <rmsd(smina/fragmenstein)>  (415) 
0.741

>  <ref_pdb>  (415) 
Z3556a

>  <inspiration_score>  (415) 
None

$$$$
P116524
     RDKit          3D

 33 37  0  0  0  0  0  0  0  0999 V2000
   -9.7462    4.6309  -18.7232 C   0  0  0  0  0  0  0  0  0  0  0  0
   -8.9367    3.5563  -18.0650 C   0  0  0  0  0  0  0  0  0  0  0  0
   -7.9094    4.1780  -17.1627 C   0  0  0  0  0  0  0  0  0  0  0  0
   -8.1790    4.4605  -15.8296 C   0  0  0  0  0  0  0  0  0  0  0  0
   -7.1757    5.0567  -15.0623 C   0  0  0  0  0  0  0  0  0  0  0  0
   -7.4589    5.5645  -13.7067 C   0  0  0  0  0  0  0  0  0  0  0  0
   -7.2870    6.7050  -13.5212 O   0  0  0  0  0  0  0  0  0  0  0  0
   -7.9276    4.4514  -12.7408 N   0  0  0  0  0  0  0  0  0  0  0  0
   -8.1829    4.4896  -11.3670 C   0  0  0  0  0  0  0  0  0  0  0  0
   -8.1349    5.7074  -10.6688 C   0  0  0  0  0  0  0  0  0  0  0  0
   -8.2913    5.7532   -9.2787 C   0  0  0  0  0  0  0  0  0  0  0  0
   -8.5051    4.5685   -8.5944 C   0  0  0  0  0  0  0  0  0  0  0  0
   -8.5945    3.3640   -9.2924 C   0  0  0  0  0  0  0  0  0  0  0  0
   -8.4382    3.3029  -10.6751 C   0  0  0  0  0  0  0  0  0  0  0  0
   -8.8124    2.2402   -8.3316 C   0  0  0  0  0  0  0  0  0  0  0  0
   -8.8374    2.8568   -6.9791 N   0  0  0  0  0  0  0  0  0  0  0  0
  -10.0287    2.4688   -6.2454 C   0  0  0  0  0  0  0  0  0  0  0  0
   -8.5310    4.3061   -7.1045 C   0  0  0  0  0  0  0  0  0  0  0  0
   -7.0935    4.5361   -6.5810 C   0  0  0  0  0  0  0  0  0  0  0  0
   -9.4286    5.2598   -6.2939 C   0  0  0  0  0  0  0  0  0  0  0  0
   -5.9204    5.2967  -15.6506 C   0  0  0  0  0  0  0  0  0  0  0  0
   -4.6392    5.7663  -15.2728 C   0  0  0  0  0  0  0  0  0  0  0  0
   -4.1803    6.2013  -13.9287 C   0  0  0  0  0  0  0  0  0  0  0  0
   -3.7736    5.7575  -16.2957 N   0  0  0  0  0  0  0  0  0  0  0  0
   -4.5107    5.3638  -17.3760 N   0  0  0  0  0  0  0  0  0  0  0  0
   -3.9338    5.3573  -18.6813 C   0  0  0  0  0  0  0  0  0  0  0  0
   -2.5409    5.4522  -18.8152 C   0  0  0  0  0  0  0  0  0  0  0  0
   -1.9530    5.4272  -20.0818 C   0  0  0  0  0  0  0  0  0  0  0  0
   -2.7470    5.3375  -21.2237 C   0  0  0  0  0  0  0  0  0  0  0  0
   -4.1325    5.2699  -21.1017 C   0  0  0  0  0  0  0  0  0  0  0  0
   -4.7266    5.2719  -19.8361 C   0  0  0  0  0  0  0  0  0  0  0  0
   -5.7989    5.0157  -17.0007 C   0  0  0  0  0  0  0  0  0  0  0  0
   -6.7539    4.4841  -17.7815 N   0  0  0  0  0  0  0  0  0  0  0  0
  1  2  1  0
  2  3  1  0
  3  4  2  0
  4  5  1  0
  5  6  1  0
  6  7  2  0
  6  8  1  0
  8  9  1  0
  9 10  2  0
 10 11  1  0
 11 12  2  0
 12 13  1  0
 13 14  2  0
 13 15  1  0
 15 16  1  0
 16 17  1  0
 16 18  1  0
 18 19  1  0
 18 20  1  0
  5 21  2  0
 21 22  1  0
 22 23  1  0
 22 24  2  0
 24 25  1  0
 25 26  1  0
 26 27  2  0
 27 28  1  0
 28 29  2  0
 29 30  1  0
 30 31  2  0
 25 32  1  0
 32 33  2  0
 33  3  1  0
 14  9  1  0
 32 21  1  0
 18 12  1  0
 31 26  1  0
M  END
>  <name>  (416) 
P116524

>  <alias>  (416) 
None

>  <smina_score_min>  (416) 
-9.032

>  <exports>  (416) 
['/opt/xchem-fragalysis-2/maxwin/BulkDock/OUTPUTS/openbind_xx01zvns2b_c2_elabs_1LOUTNY.sdf', '/opt/xchem-fragalysis-2/maxwin/BulkDock/OUTPUTS/openbind_xx01zvns2b_c2_elabs_1LSYIIV.sdf']

>  <tags>  (416) 
syndirella_placed,openbind_xx01zvns2b_c2_elabs,openbind_xx01zvns2b_c2_elabs_scored_6.2plus,syndirella_product,openbind_xx01zvns2b_c2_elabs_scored,openbind_xx01zvns2b_c2_elabs_scored_top80percent,BulkDock Fragalysis export

>  <subsites>  (416) 
1 - Z4590/B/203/1

>  <smiles>  (416) 
CCc1cc(C(=O)Nc2ccc3c(c2)CN(C)C3(C)C)c2c(C)nn(-c3ccccc3)c2n1

>  <HIPPO Pose ID>  (416) 
116524

>  <energy_score>  (416) 
-37.132542

>  <inchikey>  (416) 
BZYXPTIACHLLTP-UHFFFAOYSA-N

>  <gnina_score_min>  (416) 
6.556

>  <gnina_score>  (416) 
6.529

>  <ref_mols>  (416) 
Z3556a

>  <HIPPO Compound ID>  (416) 
179904

>  <distance_score>  (416) 
0.501965

>  <rmsd(smina/fragmenstein)>  (416) 
0.703

>  <ref_pdb>  (416) 
Z3556a

>  <inspiration_score>  (416) 
None

$$$$
P116525
     RDKit          3D

 33 37  0  0  0  0  0  0  0  0999 V2000
   -9.7578    4.6330  -18.7488 C   0  0  0  0  0  0  0  0  0  0  0  0
   -8.9137    3.5462  -18.1589 C   0  0  0  0  0  0  0  0  0  0  0  0
   -7.8466    4.1640  -17.3011 C   0  0  0  0  0  0  0  0  0  0  0  0
   -8.0771    4.4592  -15.9669 C   0  0  0  0  0  0  0  0  0  0  0  0
   -7.0417    5.0463  -15.2403 C   0  0  0  0  0  0  0  0  0  0  0  0
   -7.2772    5.5221  -13.8753 C   0  0  0  0  0  0  0  0  0  0  0  0
   -7.2360    6.6726  -13.6855 O   0  0  0  0  0  0  0  0  0  0  0  0
   -7.6070    4.3611  -12.9146 N   0  0  0  0  0  0  0  0  0  0  0  0
   -7.8538    4.3635  -11.5461 C   0  0  0  0  0  0  0  0  0  0  0  0
   -7.8384    5.5779  -10.8321 C   0  0  0  0  0  0  0  0  0  0  0  0
   -8.1216    5.6096   -9.4699 C   0  0  0  0  0  0  0  0  0  0  0  0
   -8.4104    4.4072   -8.8626 C   0  0  0  0  0  0  0  0  0  0  0  0
   -8.4230    3.1946   -9.5442 C   0  0  0  0  0  0  0  0  0  0  0  0
   -8.1389    3.1541  -10.8990 C   0  0  0  0  0  0  0  0  0  0  0  0
   -8.8333    2.1055   -8.6134 C   0  0  0  0  0  0  0  0  0  0  0  0
   -9.1221    2.8266   -7.3781 N   0  0  0  0  0  0  0  0  0  0  0  0
  -10.0187    2.2385   -6.4065 C   0  0  0  0  0  0  0  0  0  0  0  0
  -10.1159    2.9667   -5.0818 C   0  0  0  0  0  0  0  0  0  0  0  0
   -8.8698    4.1819   -7.4948 C   0  0  0  0  0  0  0  0  0  0  0  0
   -9.0372    5.0849   -6.6957 O   0  0  0  0  0  0  0  0  0  0  0  0
   -5.8060    5.2825  -15.8573 C   0  0  0  0  0  0  0  0  0  0  0  0
   -4.5180    5.7514  -15.5117 C   0  0  0  0  0  0  0  0  0  0  0  0
   -4.0306    6.1993  -14.1824 C   0  0  0  0  0  0  0  0  0  0  0  0
   -3.6778    5.7284  -16.5542 N   0  0  0  0  0  0  0  0  0  0  0  0
   -4.4475    5.3426  -17.6167 N   0  0  0  0  0  0  0  0  0  0  0  0
   -3.9106    5.3476  -18.9374 C   0  0  0  0  0  0  0  0  0  0  0  0
   -4.7404    5.2751  -20.0667 C   0  0  0  0  0  0  0  0  0  0  0  0
   -4.1881    5.2911  -21.3504 C   0  0  0  0  0  0  0  0  0  0  0  0
   -2.8076    5.3647  -21.5169 C   0  0  0  0  0  0  0  0  0  0  0  0
   -1.9771    5.4414  -20.4004 C   0  0  0  0  0  0  0  0  0  0  0  0
   -2.5231    5.4465  -19.1148 C   0  0  0  0  0  0  0  0  0  0  0  0
   -5.7255    4.9938  -17.2076 C   0  0  0  0  0  0  0  0  0  0  0  0
   -6.7058    4.4567  -17.9558 N   0  0  0  0  0  0  0  0  0  0  0  0
  1  2  1  0
  2  3  1  0
  3  4  2  0
  4  5  1  0
  5  6  1  0
  6  7  2  0
  6  8  1  0
  8  9  1  0
  9 10  2  0
 10 11  1  0
 11 12  2  0
 12 13  1  0
 13 14  2  0
 13 15  1  0
 15 16  1  0
 16 17  1  0
 17 18  1  0
 16 19  1  0
 19 20  2  0
  5 21  2  0
 21 22  1  0
 22 23  1  0
 22 24  2  0
 24 25  1  0
 25 26  1  0
 26 27  2  0
 27 28  1  0
 28 29  2  0
 29 30  1  0
 30 31  2  0
 25 32  1  0
 32 33  2  0
 33  3  1  0
 14  9  1  0
 32 21  1  0
 19 12  1  0
 31 26  1  0
M  END
>  <name>  (417) 
P116525

>  <alias>  (417) 
None

>  <smina_score_min>  (417) 
-8.958

>  <exports>  (417) 
['/opt/xchem-fragalysis-2/maxwin/BulkDock/OUTPUTS/openbind_xx01zvns2b_c2_elabs_1LOUTNY.sdf', '/opt/xchem-fragalysis-2/maxwin/BulkDock/OUTPUTS/openbind_xx01zvns2b_c2_elabs_1LSYIIV.sdf']

>  <tags>  (417) 
syndirella_placed,openbind_xx01zvns2b_c2_elabs,openbind_xx01zvns2b_c2_elabs_scored_6.2plus,syndirella_product,openbind_xx01zvns2b_c2_elabs_scored,openbind_xx01zvns2b_c2_elabs_scored_top80percent,BulkDock Fragalysis export

>  <subsites>  (417) 
1 - Z4590/B/203/1

>  <smiles>  (417) 
CCc1cc(C(=O)Nc2ccc3c(c2)CN(CC)C3=O)c2c(C)nn(-c3ccccc3)c2n1

>  <HIPPO Pose ID>  (417) 
116525

>  <energy_score>  (417) 
-52.755374

>  <inchikey>  (417) 
FRHNPPITJVXDME-UHFFFAOYSA-N

>  <gnina_score_min>  (417) 
6.426

>  <gnina_score>  (417) 
6.46

>  <ref_mols>  (417) 
Z3556a

>  <HIPPO Compound ID>  (417) 
179907

>  <distance_score>  (417) 
0.536165

>  <rmsd(smina/fragmenstein)>  (417) 
0.947

>  <ref_pdb>  (417) 
Z3556a

>  <inspiration_score>  (417) 
None

$$$$
P116530
     RDKit          3D

 33 37  0  0  0  0  0  0  0  0999 V2000
   -0.6883    5.2171  -23.1846 C   0  0  0  0  0  0  0  0  0  0  0  0
   -1.7993    5.4627  -22.2095 C   0  0  0  0  0  0  0  0  0  0  0  0
   -1.5422    5.5723  -20.8398 C   0  0  0  0  0  0  0  0  0  0  0  0
   -2.5766    5.8184  -19.9330 C   0  0  0  0  0  0  0  0  0  0  0  0
   -3.8973    5.9401  -20.3749 C   0  0  0  0  0  0  0  0  0  0  0  0
   -5.0355    6.3688  -19.4819 C   0  0  0  0  0  0  0  0  0  0  0  0
   -5.0233    5.9051  -18.0971 N   0  0  0  0  0  0  0  0  0  0  0  0
   -4.1557    6.4376  -17.1912 N   0  0  0  0  0  0  0  0  0  0  0  0
   -4.7159    6.1396  -16.0125 C   0  0  0  0  0  0  0  0  0  0  0  0
   -5.9464    5.4592  -16.1385 C   0  0  0  0  0  0  0  0  0  0  0  0
   -7.0004    5.0287  -15.3126 C   0  0  0  0  0  0  0  0  0  0  0  0
   -6.9913    5.4309  -13.8811 C   0  0  0  0  0  0  0  0  0  0  0  0
   -6.5605    6.5327  -13.6841 O   0  0  0  0  0  0  0  0  0  0  0  0
   -7.5026    4.4456  -12.9685 N   0  0  0  0  0  0  0  0  0  0  0  0
   -7.7376    4.5057  -11.5906 C   0  0  0  0  0  0  0  0  0  0  0  0
   -7.4461    5.6900  -10.8707 C   0  0  0  0  0  0  0  0  0  0  0  0
   -7.6600    5.7849   -9.4911 C   0  0  0  0  0  0  0  0  0  0  0  0
   -8.1709    4.6740   -8.8606 C   0  0  0  0  0  0  0  0  0  0  0  0
   -8.4696    3.5169   -9.5559 C   0  0  0  0  0  0  0  0  0  0  0  0
   -8.2613    3.3943  -10.9225 C   0  0  0  0  0  0  0  0  0  0  0  0
   -9.0508    2.5853   -8.5932 C   0  0  0  0  0  0  0  0  0  0  0  0
   -9.5086    1.5031   -8.8900 O   0  0  0  0  0  0  0  0  0  0  0  0
   -9.0345    3.2064   -7.3768 N   0  0  0  0  0  0  0  0  0  0  0  0
   -9.5770    2.6204   -6.1794 C   0  0  0  0  0  0  0  0  0  0  0  0
   -8.5320    4.4697   -7.4587 C   0  0  0  0  0  0  0  0  0  0  0  0
   -8.4089    5.3161   -6.5923 O   0  0  0  0  0  0  0  0  0  0  0  0
   -8.1127    4.4365  -15.9307 C   0  0  0  0  0  0  0  0  0  0  0  0
   -8.1329    4.3185  -17.3235 C   0  0  0  0  0  0  0  0  0  0  0  0
   -9.3314    3.7625  -18.0339 C   0  0  0  0  0  0  0  0  0  0  0  0
   -7.1352    4.7268  -18.1309 N   0  0  0  0  0  0  0  0  0  0  0  0
   -6.0930    5.2831  -17.5002 C   0  0  0  0  0  0  0  0  0  0  0  0
   -4.1532    5.8049  -21.7516 C   0  0  0  0  0  0  0  0  0  0  0  0
   -3.1161    5.5739  -22.6579 C   0  0  0  0  0  0  0  0  0  0  0  0
  1  2  1  0
  2  3  2  0
  3  4  1  0
  4  5  2  0
  5  6  1  0
  6  7  1  0
  7  8  1  0
  8  9  2  0
  9 10  1  0
 10 11  2  0
 11 12  1  0
 12 13  2  0
 12 14  1  0
 14 15  1  0
 15 16  2  0
 16 17  1  0
 17 18  2  0
 18 19  1  0
 19 20  2  0
 19 21  1  0
 21 22  2  0
 21 23  1  0
 23 24  1  0
 23 25  1  0
 25 26  2  0
 11 27  1  0
 27 28  2  0
 28 29  1  0
 28 30  1  0
 30 31  2  0
  5 32  1  0
 32 33  2  0
 33  2  1  0
 31  7  1  0
 31 10  1  0
 20 15  1  0
 25 18  1  0
M  END
>  <name>  (418) 
P116530

>  <alias>  (418) 
None

>  <smina_score_min>  (418) 
-8.821

>  <exports>  (418) 
['/opt/xchem-fragalysis-2/maxwin/BulkDock/OUTPUTS/openbind_xx01zvns2b_c2_elabs_1LOUTNY.sdf', '/opt/xchem-fragalysis-2/maxwin/BulkDock/OUTPUTS/openbind_xx01zvns2b_c2_elabs_1LSYIIV.sdf']

>  <tags>  (418) 
syndirella_placed,openbind_xx01zvns2b_c2_elabs,openbind_xx01zvns2b_c2_elabs_scored_6.2plus,syndirella_product,openbind_xx01zvns2b_c2_elabs_scored,openbind_xx01zvns2b_c2_elabs_scored_top80percent,BulkDock Fragalysis export

>  <subsites>  (418) 
1 - Z4590/B/203/1

>  <smiles>  (418) 
Cc1ccc(Cn2ncc3c(C(=O)Nc4ccc5c(c4)C(=O)N(C)C5=O)cc(C)nc32)cc1

>  <HIPPO Pose ID>  (418) 
116530

>  <energy_score>  (418) 
-47.170159

>  <inchikey>  (418) 
MWMYBQLPDRRZHM-UHFFFAOYSA-N

>  <gnina_score_min>  (418) 
6.214

>  <gnina_score>  (418) 
6.176

>  <ref_mols>  (418) 
Z3556a

>  <HIPPO Compound ID>  (418) 
179911

>  <distance_score>  (418) 
0.828523

>  <rmsd(smina/fragmenstein)>  (418) 
0.681

>  <ref_pdb>  (418) 
Z3556a

>  <inspiration_score>  (418) 
None

$$$$
P116531
     RDKit          3D

 33 37  0  0  0  0  0  0  0  0999 V2000
   -9.8341    4.4178   -4.4546 C   0  0  0  0  0  0  0  0  0  0  0  0
   -8.6941    3.5154   -4.8489 C   0  0  0  0  0  0  0  0  0  0  0  0
   -9.0324    2.6260   -6.0624 C   0  0  0  0  0  0  0  0  0  0  0  0
   -9.1976    3.3380   -7.3230 N   0  0  0  0  0  0  0  0  0  0  0  0
   -8.3365    4.5097   -7.4827 C   0  0  0  0  0  0  0  0  0  0  0  0
   -8.2453    4.6840   -8.9516 C   0  0  0  0  0  0  0  0  0  0  0  0
   -7.8744    5.8131   -9.6411 C   0  0  0  0  0  0  0  0  0  0  0  0
   -7.7971    5.7140  -11.0199 C   0  0  0  0  0  0  0  0  0  0  0  0
   -8.0645    4.5003  -11.6818 C   0  0  0  0  0  0  0  0  0  0  0  0
   -7.8847    4.4525  -13.0605 N   0  0  0  0  0  0  0  0  0  0  0  0
   -7.4405    5.5493  -14.0527 C   0  0  0  0  0  0  0  0  0  0  0  0
   -7.2299    6.6853  -13.8812 O   0  0  0  0  0  0  0  0  0  0  0  0
   -7.2340    5.0427  -15.4095 C   0  0  0  0  0  0  0  0  0  0  0  0
   -8.2808    4.5332  -16.1720 C   0  0  0  0  0  0  0  0  0  0  0  0
   -8.0649    4.3197  -17.5316 C   0  0  0  0  0  0  0  0  0  0  0  0
   -9.2080    3.8561  -18.3876 C   0  0  0  0  0  0  0  0  0  0  0  0
   -6.8858    4.5360  -18.1636 N   0  0  0  0  0  0  0  0  0  0  0  0
   -5.9046    4.9924  -17.3659 C   0  0  0  0  0  0  0  0  0  0  0  0
   -5.9924    5.2565  -16.0141 C   0  0  0  0  0  0  0  0  0  0  0  0
   -4.7096    5.7181  -15.6534 C   0  0  0  0  0  0  0  0  0  0  0  0
   -3.8498    5.7157  -16.6788 N   0  0  0  0  0  0  0  0  0  0  0  0
   -4.6237    5.3163  -17.7253 N   0  0  0  0  0  0  0  0  0  0  0  0
   -4.0626    5.2046  -19.0583 C   0  0  0  0  0  0  0  0  0  0  0  0
   -4.0858    6.5153  -19.8056 C   0  0  0  0  0  0  0  0  0  0  0  0
   -3.1698    7.5318  -19.5057 C   0  0  0  0  0  0  0  0  0  0  0  0
   -3.1814    8.7319  -20.2208 C   0  0  0  0  0  0  0  0  0  0  0  0
   -4.1127    8.9406  -21.2442 C   0  0  0  0  0  0  0  0  0  0  0  0
   -4.0937   10.2106  -22.0405 C   0  0  0  0  0  0  0  0  0  0  0  0
   -5.0220    7.9230  -21.5509 C   0  0  0  0  0  0  0  0  0  0  0  0
   -5.0185    6.7275  -20.8291 C   0  0  0  0  0  0  0  0  0  0  0  0
   -8.4577    3.3639  -10.9632 C   0  0  0  0  0  0  0  0  0  0  0  0
   -8.5623    3.4813   -9.5858 C   0  0  0  0  0  0  0  0  0  0  0  0
   -8.9603    2.4887   -8.5274 C   0  0  0  0  0  0  0  0  0  0  0  0
  1  2  1  0
  2  3  1  0
  3  4  1  0
  4  5  1  0
  5  6  1  0
  6  7  2  0
  7  8  1  0
  8  9  2  0
  9 10  1  0
 10 11  1  0
 11 12  2  0
 11 13  1  0
 13 14  2  0
 14 15  1  0
 15 16  1  0
 15 17  2  0
 17 18  1  0
 18 19  2  0
 19 20  1  0
 20 21  2  0
 21 22  1  0
 22 23  1  0
 23 24  1  0
 24 25  2  0
 25 26  1  0
 26 27  2  0
 27 28  1  0
 27 29  1  0
 29 30  2  0
  9 31  1  0
 31 32  2  0
 32 33  1  0
 33  4  1  0
 32  6  1  0
 19 13  1  0
 30 24  1  0
 22 18  1  0
M  END
>  <name>  (419) 
P116531

>  <alias>  (419) 
None

>  <smina_score_min>  (419) 
-8.51

>  <exports>  (419) 
['/opt/xchem-fragalysis-2/maxwin/BulkDock/OUTPUTS/openbind_xx01zvns2b_c2_elabs_1LOUTNY.sdf', '/opt/xchem-fragalysis-2/maxwin/BulkDock/OUTPUTS/openbind_xx01zvns2b_c2_elabs_1LSYIIV.sdf']

>  <tags>  (419) 
syndirella_placed,openbind_xx01zvns2b_c2_elabs,openbind_xx01zvns2b_c2_elabs_scored_6.2plus,syndirella_product,openbind_xx01zvns2b_c2_elabs_scored,openbind_xx01zvns2b_c2_elabs_scored_top80percent,BulkDock Fragalysis export

>  <subsites>  (419) 
1 - Z4590/B/203/1

>  <smiles>  (419) 
CCCN1Cc2ccc(NC(=O)c3cc(C)nc4c3cnn4Cc3ccc(C)cc3)cc2C1

>  <HIPPO Pose ID>  (419) 
116531

>  <energy_score>  (419) 
-22.889498

>  <inchikey>  (419) 
TVDNPMOLBPUDPI-UHFFFAOYSA-N

>  <gnina_score_min>  (419) 
6.466

>  <gnina_score>  (419) 
6.28

>  <ref_mols>  (419) 
Z3556a

>  <HIPPO Compound ID>  (419) 
179912

>  <distance_score>  (419) 
0.629344

>  <rmsd(smina/fragmenstein)>  (419) 
0.951

>  <ref_pdb>  (419) 
Z3556a

>  <inspiration_score>  (419) 
None

$$$$
P116532
     RDKit          3D

 33 37  0  0  0  0  0  0  0  0999 V2000
   -9.2938    3.4102   -4.7582 C   0  0  0  0  0  0  0  0  0  0  0  0
   -9.7839    2.7489   -6.0366 C   0  0  0  0  0  0  0  0  0  0  0  0
   -9.0835    3.2237   -7.2102 N   0  0  0  0  0  0  0  0  0  0  0  0
   -8.6507    4.5914   -7.3419 C   0  0  0  0  0  0  0  0  0  0  0  0
   -8.3641    4.7056   -8.7913 C   0  0  0  0  0  0  0  0  0  0  0  0
   -7.9663    5.8215   -9.4889 C   0  0  0  0  0  0  0  0  0  0  0  0
   -7.7911    5.6897  -10.8626 C   0  0  0  0  0  0  0  0  0  0  0  0
   -8.0014    4.4615  -11.5259 C   0  0  0  0  0  0  0  0  0  0  0  0
   -7.7538    4.4013  -12.8976 N   0  0  0  0  0  0  0  0  0  0  0  0
   -7.2740    5.4952  -13.8808 C   0  0  0  0  0  0  0  0  0  0  0  0
   -6.9374    6.5970  -13.6830 O   0  0  0  0  0  0  0  0  0  0  0  0
   -7.1470    5.0202  -15.2666 C   0  0  0  0  0  0  0  0  0  0  0  0
   -8.2278    4.5317  -16.0009 C   0  0  0  0  0  0  0  0  0  0  0  0
   -8.0686    4.3390  -17.3752 C   0  0  0  0  0  0  0  0  0  0  0  0
   -9.2370    3.8825  -18.2032 C   0  0  0  0  0  0  0  0  0  0  0  0
   -6.9143    4.5582  -18.0493 N   0  0  0  0  0  0  0  0  0  0  0  0
   -5.8996    4.9961  -17.2849 C   0  0  0  0  0  0  0  0  0  0  0  0
   -5.9317    5.2383  -15.9260 C   0  0  0  0  0  0  0  0  0  0  0  0
   -4.6307    5.6844  -15.6120 C   0  0  0  0  0  0  0  0  0  0  0  0
   -3.8126    5.6898  -16.6703 N   0  0  0  0  0  0  0  0  0  0  0  0
   -4.6300    5.3111  -17.6909 N   0  0  0  0  0  0  0  0  0  0  0  0
   -4.1163    5.1977  -19.0438 C   0  0  0  0  0  0  0  0  0  0  0  0
   -4.1307    6.5140  -19.7819 C   0  0  0  0  0  0  0  0  0  0  0  0
   -3.2233    7.5320  -19.4607 C   0  0  0  0  0  0  0  0  0  0  0  0
   -3.2243    8.7355  -20.1703 C   0  0  0  0  0  0  0  0  0  0  0  0
   -4.1352    8.9458  -21.2115 C   0  0  0  0  0  0  0  0  0  0  0  0
   -4.1043   10.2190  -22.0023 C   0  0  0  0  0  0  0  0  0  0  0  0
   -5.0334    7.9260  -21.5419 C   0  0  0  0  0  0  0  0  0  0  0  0
   -5.0405    6.7270  -20.8255 C   0  0  0  0  0  0  0  0  0  0  0  0
   -8.4182    3.3358  -10.8093 C   0  0  0  0  0  0  0  0  0  0  0  0
   -8.5946    3.4925   -9.4412 C   0  0  0  0  0  0  0  0  0  0  0  0
   -9.1021    2.5534   -8.4269 C   0  0  0  0  0  0  0  0  0  0  0  0
   -9.5313    1.4430   -8.6553 O   0  0  0  0  0  0  0  0  0  0  0  0
  1  2  1  0
  2  3  1  0
  3  4  1  0
  4  5  1  0
  5  6  2  0
  6  7  1  0
  7  8  2  0
  8  9  1  0
  9 10  1  0
 10 11  2  0
 10 12  1  0
 12 13  2  0
 13 14  1  0
 14 15  1  0
 14 16  2  0
 16 17  1  0
 17 18  2  0
 18 19  1  0
 19 20  2  0
 20 21  1  0
 21 22  1  0
 22 23  1  0
 23 24  2  0
 24 25  1  0
 25 26  2  0
 26 27  1  0
 26 28  1  0
 28 29  2  0
  8 30  1  0
 30 31  2  0
 31 32  1  0
 32 33  2  0
 32  3  1  0
 31  5  1  0
 18 12  1  0
 29 23  1  0
 21 17  1  0
M  END
>  <name>  (420) 
P116532

>  <alias>  (420) 
None

>  <smina_score_min>  (420) 
-9.005

>  <exports>  (420) 
['/opt/xchem-fragalysis-2/maxwin/BulkDock/OUTPUTS/openbind_xx01zvns2b_c2_elabs_1LOUTNY.sdf', '/opt/xchem-fragalysis-2/maxwin/BulkDock/OUTPUTS/openbind_xx01zvns2b_c2_elabs_1LSYIIV.sdf']

>  <tags>  (420) 
syndirella_placed,openbind_xx01zvns2b_c2_elabs,openbind_xx01zvns2b_c2_elabs_scored_6.2plus,syndirella_product,openbind_xx01zvns2b_c2_elabs_scored,openbind_xx01zvns2b_c2_elabs_scored_top80percent,BulkDock Fragalysis export

>  <subsites>  (420) 
1 - Z4590/B/203/1

>  <smiles>  (420) 
CCN1Cc2ccc(NC(=O)c3cc(C)nc4c3cnn4Cc3ccc(C)cc3)cc2C1=O

>  <HIPPO Pose ID>  (420) 
116532

>  <energy_score>  (420) 
-44.14391

>  <inchikey>  (420) 
JBGOCSJHLUBOHO-UHFFFAOYSA-N

>  <gnina_score_min>  (420) 
6.318

>  <gnina_score>  (420) 
6.196

>  <ref_mols>  (420) 
Z3556a

>  <HIPPO Compound ID>  (420) 
179913

>  <distance_score>  (420) 
0.554398

>  <rmsd(smina/fragmenstein)>  (420) 
0.995

>  <ref_pdb>  (420) 
Z3556a

>  <inspiration_score>  (420) 
None

$$$$
P116533
     RDKit          3D

 33 37  0  0  0  0  0  0  0  0999 V2000
   -4.3182   10.1115  -22.0896 C   0  0  0  0  0  0  0  0  0  0  0  0
   -4.2420    8.8502  -21.2833 C   0  0  0  0  0  0  0  0  0  0  0  0
   -3.3305    8.7392  -20.2270 C   0  0  0  0  0  0  0  0  0  0  0  0
   -3.2700    7.5721  -19.4611 C   0  0  0  0  0  0  0  0  0  0  0  0
   -4.1306    6.4996  -19.7285 C   0  0  0  0  0  0  0  0  0  0  0  0
   -4.0537    5.2230  -18.9283 C   0  0  0  0  0  0  0  0  0  0  0  0
   -4.6103    5.3670  -17.5958 N   0  0  0  0  0  0  0  0  0  0  0  0
   -3.8334    5.7974  -16.5656 N   0  0  0  0  0  0  0  0  0  0  0  0
   -4.6849    5.8165  -15.5334 C   0  0  0  0  0  0  0  0  0  0  0  0
   -5.9688    5.3411  -15.8725 C   0  0  0  0  0  0  0  0  0  0  0  0
   -7.2033    5.1341  -15.2485 C   0  0  0  0  0  0  0  0  0  0  0  0
   -7.4052    5.6599  -13.8883 C   0  0  0  0  0  0  0  0  0  0  0  0
   -7.1438    6.7847  -13.7131 O   0  0  0  0  0  0  0  0  0  0  0  0
   -7.9292    4.5889  -12.9061 N   0  0  0  0  0  0  0  0  0  0  0  0
   -8.1441    4.6500  -11.5286 C   0  0  0  0  0  0  0  0  0  0  0  0
   -8.0104    5.8777  -10.8532 C   0  0  0  0  0  0  0  0  0  0  0  0
   -8.1504    5.9680   -9.4663 C   0  0  0  0  0  0  0  0  0  0  0  0
   -8.4380    4.8151   -8.7660 C   0  0  0  0  0  0  0  0  0  0  0  0
   -8.6124    3.5960   -9.4423 C   0  0  0  0  0  0  0  0  0  0  0  0
   -8.4589    3.4900  -10.8186 C   0  0  0  0  0  0  0  0  0  0  0  0
   -8.9302    2.5301   -8.4404 C   0  0  0  0  0  0  0  0  0  0  0  0
   -9.2913    3.3059   -7.2343 N   0  0  0  0  0  0  0  0  0  0  0  0
   -9.2286    2.5285   -6.0238 C   0  0  0  0  0  0  0  0  0  0  0  0
   -8.5332    4.5770   -7.2732 C   0  0  0  0  0  0  0  0  0  0  0  0
   -7.0854    4.5416   -6.7392 C   0  0  0  0  0  0  0  0  0  0  0  0
   -9.2743    5.6563   -6.4668 C   0  0  0  0  0  0  0  0  0  0  0  0
   -8.2491    4.5989  -16.0017 C   0  0  0  0  0  0  0  0  0  0  0  0
   -8.0433    4.3592  -17.3615 C   0  0  0  0  0  0  0  0  0  0  0  0
   -9.1854    3.8733  -18.2094 C   0  0  0  0  0  0  0  0  0  0  0  0
   -6.8696    4.5667  -18.0043 N   0  0  0  0  0  0  0  0  0  0  0  0
   -5.8875    5.0458  -17.2202 C   0  0  0  0  0  0  0  0  0  0  0  0
   -5.0623    6.6257  -20.7669 C   0  0  0  0  0  0  0  0  0  0  0  0
   -5.1148    7.7880  -21.5392 C   0  0  0  0  0  0  0  0  0  0  0  0
  1  2  1  0
  2  3  2  0
  3  4  1  0
  4  5  2  0
  5  6  1  0
  6  7  1  0
  7  8  1  0
  8  9  2  0
  9 10  1  0
 10 11  2  0
 11 12  1  0
 12 13  2  0
 12 14  1  0
 14 15  1  0
 15 16  2  0
 16 17  1  0
 17 18  2  0
 18 19  1  0
 19 20  2  0
 19 21  1  0
 21 22  1  0
 22 23  1  0
 22 24  1  0
 24 25  1  0
 24 26  1  0
 11 27  1  0
 27 28  2  0
 28 29  1  0
 28 30  1  0
 30 31  2  0
  5 32  1  0
 32 33  2  0
 33  2  1  0
 31  7  1  0
 31 10  1  0
 20 15  1  0
 24 18  1  0
M  END
>  <name>  (421) 
P116533

>  <alias>  (421) 
None

>  <smina_score_min>  (421) 
-8.909

>  <exports>  (421) 
['/opt/xchem-fragalysis-2/maxwin/BulkDock/OUTPUTS/openbind_xx01zvns2b_c2_elabs_1LOUTNY.sdf', '/opt/xchem-fragalysis-2/maxwin/BulkDock/OUTPUTS/openbind_xx01zvns2b_c2_elabs_1LSYIIV.sdf']

>  <tags>  (421) 
syndirella_placed,openbind_xx01zvns2b_c2_elabs,openbind_xx01zvns2b_c2_elabs_scored_6.2plus,syndirella_product,openbind_xx01zvns2b_c2_elabs_scored,openbind_xx01zvns2b_c2_elabs_scored_top80percent,BulkDock Fragalysis export

>  <subsites>  (421) 
1 - Z4590/B/203/1

>  <smiles>  (421) 
Cc1ccc(Cn2ncc3c(C(=O)Nc4ccc5c(c4)CN(C)C5(C)C)cc(C)nc32)cc1

>  <HIPPO Pose ID>  (421) 
116533

>  <energy_score>  (421) 
-29.174985

>  <inchikey>  (421) 
UNYDOIYOXAFGMK-UHFFFAOYSA-N

>  <gnina_score_min>  (421) 
6.405

>  <gnina_score>  (421) 
6.212

>  <ref_mols>  (421) 
Z3556a

>  <HIPPO Compound ID>  (421) 
179914

>  <distance_score>  (421) 
0.616922

>  <rmsd(smina/fragmenstein)>  (421) 
1.042

>  <ref_pdb>  (421) 
Z3556a

>  <inspiration_score>  (421) 
None

$$$$
P116534
     RDKit          3D

 33 37  0  0  0  0  0  0  0  0999 V2000
  -10.5689    2.6777   -5.8343 C   0  0  0  0  0  0  0  0  0  0  0  0
   -9.1747    2.3813   -6.3534 C   0  0  0  0  0  0  0  0  0  0  0  0
   -8.8992    3.0743   -7.5893 N   0  0  0  0  0  0  0  0  0  0  0  0
   -8.7333    2.3664   -8.8491 C   0  0  0  0  0  0  0  0  0  0  0  0
   -8.4119    3.4780   -9.7931 C   0  0  0  0  0  0  0  0  0  0  0  0
   -8.2081    3.4515  -11.1640 C   0  0  0  0  0  0  0  0  0  0  0  0
   -7.9276    4.6617  -11.8126 C   0  0  0  0  0  0  0  0  0  0  0  0
   -7.7048    4.6553  -13.1899 N   0  0  0  0  0  0  0  0  0  0  0  0
   -7.2725    5.6945  -14.0767 C   0  0  0  0  0  0  0  0  0  0  0  0
   -7.0659    6.8579  -13.8792 O   0  0  0  0  0  0  0  0  0  0  0  0
   -7.0471    5.2382  -15.4579 C   0  0  0  0  0  0  0  0  0  0  0  0
   -8.0647    4.6630  -16.2216 C   0  0  0  0  0  0  0  0  0  0  0  0
   -7.8231    4.4059  -17.5711 C   0  0  0  0  0  0  0  0  0  0  0  0
   -8.9393    3.8762  -18.4267 C   0  0  0  0  0  0  0  0  0  0  0  0
   -6.6457    4.6459  -18.1981 N   0  0  0  0  0  0  0  0  0  0  0  0
   -5.7000    5.1890  -17.4099 C   0  0  0  0  0  0  0  0  0  0  0  0
   -5.8185    5.5074  -16.0698 C   0  0  0  0  0  0  0  0  0  0  0  0
   -4.5682    6.0594  -15.7217 C   0  0  0  0  0  0  0  0  0  0  0  0
   -3.7011    6.0668  -16.7403 N   0  0  0  0  0  0  0  0  0  0  0  0
   -4.4307    5.5590  -17.7700 N   0  0  0  0  0  0  0  0  0  0  0  0
   -3.8348    5.3969  -19.0833 C   0  0  0  0  0  0  0  0  0  0  0  0
   -4.0065    6.6247  -19.9425 C   0  0  0  0  0  0  0  0  0  0  0  0
   -3.1821    7.7438  -19.7669 C   0  0  0  0  0  0  0  0  0  0  0  0
   -3.3297    8.8694  -20.5812 C   0  0  0  0  0  0  0  0  0  0  0  0
   -4.3092    8.9002  -21.5801 C   0  0  0  0  0  0  0  0  0  0  0  0
   -4.4363   10.0892  -22.4842 C   0  0  0  0  0  0  0  0  0  0  0  0
   -5.1288    7.7812  -21.7601 C   0  0  0  0  0  0  0  0  0  0  0  0
   -4.9903    6.6601  -20.9389 C   0  0  0  0  0  0  0  0  0  0  0  0
   -7.8609    5.8671  -11.0820 C   0  0  0  0  0  0  0  0  0  0  0  0
   -8.0630    5.8862   -9.7022 C   0  0  0  0  0  0  0  0  0  0  0  0
   -8.3327    4.6813   -9.0916 C   0  0  0  0  0  0  0  0  0  0  0  0
   -8.6076    4.4178   -7.6769 C   0  0  0  0  0  0  0  0  0  0  0  0
   -8.5759    5.2547   -6.7942 O   0  0  0  0  0  0  0  0  0  0  0  0
  1  2  1  0
  2  3  1  0
  3  4  1  0
  4  5  1  0
  5  6  2  0
  6  7  1  0
  7  8  1  0
  8  9  1  0
  9 10  2  0
  9 11  1  0
 11 12  2  0
 12 13  1  0
 13 14  1  0
 13 15  2  0
 15 16  1  0
 16 17  2  0
 17 18  1  0
 18 19  2  0
 19 20  1  0
 20 21  1  0
 21 22  1  0
 22 23  2  0
 23 24  1  0
 24 25  2  0
 25 26  1  0
 25 27  1  0
 27 28  2  0
  7 29  2  0
 29 30  1  0
 30 31  2  0
 31 32  1  0
 32 33  2  0
 32  3  1  0
 31  5  1  0
 17 11  1  0
 28 22  1  0
 20 16  1  0
M  END
>  <name>  (422) 
P116534

>  <alias>  (422) 
None

>  <smina_score_min>  (422) 
-8.823

>  <exports>  (422) 
['/opt/xchem-fragalysis-2/maxwin/BulkDock/OUTPUTS/openbind_xx01zvns2b_c2_elabs_1LOUTNY.sdf', '/opt/xchem-fragalysis-2/maxwin/BulkDock/OUTPUTS/openbind_xx01zvns2b_c2_elabs_1LSYIIV.sdf']

>  <tags>  (422) 
syndirella_placed,openbind_xx01zvns2b_c2_elabs,openbind_xx01zvns2b_c2_elabs_scored_6.2plus,syndirella_product,openbind_xx01zvns2b_c2_elabs_scored,openbind_xx01zvns2b_c2_elabs_scored_top80percent,BulkDock Fragalysis export

>  <subsites>  (422) 
1 - Z4590/B/203/1

>  <smiles>  (422) 
CCN1Cc2cc(NC(=O)c3cc(C)nc4c3cnn4Cc3ccc(C)cc3)ccc2C1=O

>  <HIPPO Pose ID>  (422) 
116534

>  <energy_score>  (422) 
-49.30814

>  <inchikey>  (422) 
RGMJDLNZCBJDAQ-UHFFFAOYSA-N

>  <gnina_score_min>  (422) 
6.308

>  <gnina_score>  (422) 
6.297

>  <ref_mols>  (422) 
Z3556a

>  <HIPPO Compound ID>  (422) 
179917

>  <distance_score>  (422) 
0.744726

>  <rmsd(smina/fragmenstein)>  (422) 
1.016

>  <ref_pdb>  (422) 
Z3556a

>  <inspiration_score>  (422) 
None

$$$$
P116560
     RDKit          3D

 33 37  0  0  0  0  0  0  0  0999 V2000
  -10.5438    2.8785   -5.1675 C   0  0  0  0  0  0  0  0  0  0  0  0
  -10.2747    2.2650   -6.5319 C   0  0  0  0  0  0  0  0  0  0  0  0
   -8.9955    2.6489   -7.1077 N   0  0  0  0  0  0  0  0  0  0  0  0
   -8.7528    4.0942   -7.2030 C   0  0  0  0  0  0  0  0  0  0  0  0
   -8.4264    4.3695   -8.6290 C   0  0  0  0  0  0  0  0  0  0  0  0
   -8.1353    5.5815   -9.2230 C   0  0  0  0  0  0  0  0  0  0  0  0
   -7.8591    5.5896  -10.5877 C   0  0  0  0  0  0  0  0  0  0  0  0
   -7.8795    4.3989  -11.3320 C   0  0  0  0  0  0  0  0  0  0  0  0
   -7.5777    4.4218  -12.6888 N   0  0  0  0  0  0  0  0  0  0  0  0
   -6.9970    5.5502  -13.5680 C   0  0  0  0  0  0  0  0  0  0  0  0
   -6.7524    6.6618  -13.3088 O   0  0  0  0  0  0  0  0  0  0  0  0
   -6.7999    5.1099  -14.9548 C   0  0  0  0  0  0  0  0  0  0  0  0
   -7.8540    4.5460  -15.6815 C   0  0  0  0  0  0  0  0  0  0  0  0
   -7.6638    4.2776  -17.0298 C   0  0  0  0  0  0  0  0  0  0  0  0
   -8.7299    3.6660  -17.9203 C   0  0  0  0  0  0  0  0  0  0  0  0
   -8.4619    4.0650  -19.3379 C   0  0  0  0  0  0  0  0  0  0  0  0
  -10.1370    4.0652  -17.6095 C   0  0  0  0  0  0  0  0  0  0  0  0
   -6.5020    4.5305  -17.6638 N   0  0  0  0  0  0  0  0  0  0  0  0
   -5.5139    5.0647  -16.9381 C   0  0  0  0  0  0  0  0  0  0  0  0
   -5.5804    5.3562  -15.5927 C   0  0  0  0  0  0  0  0  0  0  0  0
   -4.2989    5.8342  -15.2792 C   0  0  0  0  0  0  0  0  0  0  0  0
   -3.4649    5.8215  -16.3244 N   0  0  0  0  0  0  0  0  0  0  0  0
   -4.2426    5.4070  -17.3718 N   0  0  0  0  0  0  0  0  0  0  0  0
   -3.7237    5.3846  -18.7020 C   0  0  0  0  0  0  0  0  0  0  0  0
   -2.3383    5.4962  -18.9031 C   0  0  0  0  0  0  0  0  0  0  0  0
   -1.8107    5.4502  -20.1971 C   0  0  0  0  0  0  0  0  0  0  0  0
   -2.6621    5.3157  -21.2872 C   0  0  0  0  0  0  0  0  0  0  0  0
   -2.1558    5.2683  -22.5269 F   0  0  0  0  0  0  0  0  0  0  0  0
   -4.0361    5.2334  -21.1093 C   0  0  0  0  0  0  0  0  0  0  0  0
   -4.5689    5.2645  -19.8179 C   0  0  0  0  0  0  0  0  0  0  0  0
   -8.1952    3.1823  -10.7209 C   0  0  0  0  0  0  0  0  0  0  0  0
   -8.4589    3.1883   -9.3609 C   0  0  0  0  0  0  0  0  0  0  0  0
   -8.7907    2.0477   -8.4525 C   0  0  0  0  0  0  0  0  0  0  0  0
  1  2  1  0
  2  3  1  0
  3  4  1  0
  4  5  1  0
  5  6  2  0
  6  7  1  0
  7  8  2  0
  8  9  1  0
  9 10  1  0
 10 11  2  0
 10 12  1  0
 12 13  2  0
 13 14  1  0
 14 15  1  0
 15 16  1  0
 15 17  1  0
 14 18  2  0
 18 19  1  0
 19 20  2  0
 20 21  1  0
 21 22  2  0
 22 23  1  0
 23 24  1  0
 24 25  2  0
 25 26  1  0
 26 27  2  0
 27 28  1  0
 27 29  1  0
 29 30  2  0
  8 31  1  0
 31 32  2  0
 32 33  1  0
 33  3  1  0
 32  5  1  0
 20 12  1  0
 30 24  1  0
 23 19  1  0
M  END
>  <name>  (423) 
P116560

>  <alias>  (423) 
None

>  <smina_score_min>  (423) 
-8.214

>  <exports>  (423) 
['/opt/xchem-fragalysis-2/maxwin/BulkDock/OUTPUTS/openbind_xx01zvns2b_c2_elabs_1LOUTNY.sdf', '/opt/xchem-fragalysis-2/maxwin/BulkDock/OUTPUTS/openbind_xx01zvns2b_c2_elabs_1LSYIIV.sdf']

>  <tags>  (423) 
syndirella_placed,openbind_xx01zvns2b_c2_elabs,openbind_xx01zvns2b_c2_elabs_scored_6.2plus,syndirella_product,openbind_xx01zvns2b_c2_elabs_scored,openbind_xx01zvns2b_c2_elabs_scored_top80percent,BulkDock Fragalysis export

>  <subsites>  (423) 
1 - Z4590/B/203/1

>  <smiles>  (423) 
CCN1Cc2ccc(NC(=O)c3cc(C(C)C)nc4c3cnn4-c3ccc(F)cc3)cc2C1

>  <HIPPO Pose ID>  (423) 
116560

>  <energy_score>  (423) 
-24.884817

>  <inchikey>  (423) 
GNUNVJNMVFCBMS-UHFFFAOYSA-N

>  <gnina_score_min>  (423) 
6.473

>  <gnina_score>  (423) 
6.335

>  <ref_mols>  (423) 
Z3556a

>  <HIPPO Compound ID>  (423) 
179951

>  <distance_score>  (423) 
0.580759

>  <rmsd(smina/fragmenstein)>  (423) 
0.813

>  <ref_pdb>  (423) 
Z3556a

>  <inspiration_score>  (423) 
None

$$$$
P116562
     RDKit          3D

 33 37  0  0  0  0  0  0  0  0999 V2000
   -9.5974    4.8042  -18.8724 C   0  0  0  0  0  0  0  0  0  0  0  0
   -8.6693    3.7211  -18.4282 C   0  0  0  0  0  0  0  0  0  0  0  0
   -9.4754    2.5315  -18.0179 C   0  0  0  0  0  0  0  0  0  0  0  0
   -7.7192    4.2563  -17.3825 C   0  0  0  0  0  0  0  0  0  0  0  0
   -8.0614    4.4773  -16.0435 C   0  0  0  0  0  0  0  0  0  0  0  0
   -7.0873    4.9923  -15.1811 C   0  0  0  0  0  0  0  0  0  0  0  0
   -7.3889    5.4777  -13.8179 C   0  0  0  0  0  0  0  0  0  0  0  0
   -7.1515    6.6074  -13.6289 O   0  0  0  0  0  0  0  0  0  0  0  0
   -7.8941    4.3790  -12.8440 N   0  0  0  0  0  0  0  0  0  0  0  0
   -8.1150    4.4206  -11.4488 C   0  0  0  0  0  0  0  0  0  0  0  0
   -8.5177    3.2519  -10.7784 C   0  0  0  0  0  0  0  0  0  0  0  0
   -8.6621    3.3071   -9.3922 C   0  0  0  0  0  0  0  0  0  0  0  0
   -8.3800    4.4527   -8.6504 C   0  0  0  0  0  0  0  0  0  0  0  0
   -8.0161    5.6150   -9.2915 C   0  0  0  0  0  0  0  0  0  0  0  0
   -7.9018    5.5933  -10.6849 C   0  0  0  0  0  0  0  0  0  0  0  0
   -7.5462    6.7496  -11.2556 F   0  0  0  0  0  0  0  0  0  0  0  0
   -8.5241    4.1843   -7.1922 C   0  0  0  0  0  0  0  0  0  0  0  0
   -9.0609    2.8559   -7.1689 N   0  0  0  0  0  0  0  0  0  0  0  0
   -9.1086    2.2890   -8.4261 C   0  0  0  0  0  0  0  0  0  0  0  0
   -9.4990    1.1706   -8.6683 O   0  0  0  0  0  0  0  0  0  0  0  0
   -5.8035    5.2427  -15.6982 C   0  0  0  0  0  0  0  0  0  0  0  0
   -4.5565    5.7025  -15.2393 C   0  0  0  0  0  0  0  0  0  0  0  0
   -3.6233    5.7365  -16.1958 N   0  0  0  0  0  0  0  0  0  0  0  0
   -4.2931    5.3796  -17.3334 N   0  0  0  0  0  0  0  0  0  0  0  0
   -3.6391    5.4126  -18.6038 C   0  0  0  0  0  0  0  0  0  0  0  0
   -4.3595    5.3204  -19.8068 C   0  0  0  0  0  0  0  0  0  0  0  0
   -3.6910    5.3512  -21.0338 C   0  0  0  0  0  0  0  0  0  0  0  0
   -2.3078    5.4656  -21.0616 C   0  0  0  0  0  0  0  0  0  0  0  0
   -1.6754    5.4841  -22.2427 F   0  0  0  0  0  0  0  0  0  0  0  0
   -1.5786    5.5684  -19.8838 C   0  0  0  0  0  0  0  0  0  0  0  0
   -2.2419    5.5536  -18.6533 C   0  0  0  0  0  0  0  0  0  0  0  0
   -5.6048    5.0303  -17.0484 C   0  0  0  0  0  0  0  0  0  0  0  0
   -6.5189    4.5615  -17.9067 N   0  0  0  0  0  0  0  0  0  0  0  0
  1  2  1  0
  2  3  1  0
  2  4  1  0
  4  5  2  0
  5  6  1  0
  6  7  1  0
  7  8  2  0
  7  9  1  0
  9 10  1  0
 10 11  2  0
 11 12  1  0
 12 13  2  0
 13 14  1  0
 14 15  2  0
 15 16  1  0
 13 17  1  0
 17 18  1  0
 18 19  1  0
 19 20  2  0
  6 21  2  0
 21 22  1  0
 22 23  2  0
 23 24  1  0
 24 25  1  0
 25 26  2  0
 26 27  1  0
 27 28  2  0
 28 29  1  0
 28 30  1  0
 30 31  2  0
 24 32  1  0
 32 33  2  0
 33  4  1  0
 15 10  1  0
 32 21  1  0
 19 12  1  0
 31 25  1  0
M  END
>  <name>  (424) 
P116562

>  <alias>  (424) 
None

>  <smina_score_min>  (424) 
-8.104

>  <exports>  (424) 
['/opt/xchem-fragalysis-2/maxwin/BulkDock/OUTPUTS/openbind_xx01zvns2b_c2_elabs_1LOUTNY.sdf', '/opt/xchem-fragalysis-2/maxwin/BulkDock/OUTPUTS/openbind_xx01zvns2b_c2_elabs_1LSYIIV.sdf']

>  <tags>  (424) 
syndirella_placed,openbind_xx01zvns2b_c2_elabs,openbind_xx01zvns2b_c2_elabs_scored_6.2plus,syndirella_product,openbind_xx01zvns2b_c2_elabs_scored,openbind_xx01zvns2b_c2_elabs_scored_top80percent,BulkDock Fragalysis export

>  <subsites>  (424) 
1 - Z4590/B/203/1

>  <smiles>  (424) 
CC(C)c1cc(C(=O)Nc2cc3c(cc2F)CNC3=O)c2cnn(-c3ccc(F)cc3)c2n1

>  <HIPPO Pose ID>  (424) 
116562

>  <energy_score>  (424) 
-17.69842

>  <inchikey>  (424) 
HWQFATXUZNAQBI-UHFFFAOYSA-N

>  <gnina_score_min>  (424) 
6.573

>  <gnina_score>  (424) 
6.434

>  <ref_mols>  (424) 
Z3556a

>  <HIPPO Compound ID>  (424) 
179956

>  <distance_score>  (424) 
0.538004

>  <rmsd(smina/fragmenstein)>  (424) 
1.013

>  <ref_pdb>  (424) 
Z3556a

>  <inspiration_score>  (424) 
None

$$$$
P116563
     RDKit          3D

 33 37  0  0  0  0  0  0  0  0999 V2000
   -9.3805    2.5153  -18.1904 C   0  0  0  0  0  0  0  0  0  0  0  0
   -9.2539    3.9954  -18.4235 C   0  0  0  0  0  0  0  0  0  0  0  0
  -10.6348    4.6076  -18.3324 C   0  0  0  0  0  0  0  0  0  0  0  0
   -8.1469    4.5115  -17.5202 C   0  0  0  0  0  0  0  0  0  0  0  0
   -8.3216    4.6925  -16.1477 C   0  0  0  0  0  0  0  0  0  0  0  0
   -7.2346    5.1143  -15.3788 C   0  0  0  0  0  0  0  0  0  0  0  0
   -7.3925    5.5450  -13.9822 C   0  0  0  0  0  0  0  0  0  0  0  0
   -7.2184    6.6763  -13.7532 O   0  0  0  0  0  0  0  0  0  0  0  0
   -7.7096    4.3692  -13.0337 N   0  0  0  0  0  0  0  0  0  0  0  0
   -7.9643    4.3547  -11.6616 C   0  0  0  0  0  0  0  0  0  0  0  0
   -7.9674    5.5585  -10.9270 C   0  0  0  0  0  0  0  0  0  0  0  0
   -8.2282    5.5673   -9.5553 C   0  0  0  0  0  0  0  0  0  0  0  0
   -8.4800    4.3533   -8.9536 C   0  0  0  0  0  0  0  0  0  0  0  0
   -8.4754    3.1503   -9.6579 C   0  0  0  0  0  0  0  0  0  0  0  0
   -8.2133    3.1340  -11.0204 C   0  0  0  0  0  0  0  0  0  0  0  0
   -8.8186    2.0296   -8.7335 C   0  0  0  0  0  0  0  0  0  0  0  0
   -9.0928    2.7271   -7.4893 N   0  0  0  0  0  0  0  0  0  0  0  0
   -9.7620    2.0750   -6.3981 C   0  0  0  0  0  0  0  0  0  0  0  0
   -8.8862    4.0859   -7.5694 C   0  0  0  0  0  0  0  0  0  0  0  0
   -9.0591    4.9436   -6.7231 O   0  0  0  0  0  0  0  0  0  0  0  0
   -5.9894    5.2720  -15.9942 C   0  0  0  0  0  0  0  0  0  0  0  0
   -4.6767    5.6103  -15.6279 C   0  0  0  0  0  0  0  0  0  0  0  0
   -3.8259    5.5773  -16.6559 N   0  0  0  0  0  0  0  0  0  0  0  0
   -4.6143    5.2976  -17.7402 N   0  0  0  0  0  0  0  0  0  0  0  0
   -4.0545    5.2896  -19.0528 C   0  0  0  0  0  0  0  0  0  0  0  0
   -4.8699    5.2805  -20.1959 C   0  0  0  0  0  0  0  0  0  0  0  0
   -4.2978    5.2687  -21.4699 C   0  0  0  0  0  0  0  0  0  0  0  0
   -2.9162    5.2494  -21.6043 C   0  0  0  0  0  0  0  0  0  0  0  0
   -2.3766    5.2096  -22.8299 F   0  0  0  0  0  0  0  0  0  0  0  0
   -2.0929    5.2694  -20.4861 C   0  0  0  0  0  0  0  0  0  0  0  0
   -2.6583    5.3003  -19.2081 C   0  0  0  0  0  0  0  0  0  0  0  0
   -5.9312    5.0638  -17.3596 C   0  0  0  0  0  0  0  0  0  0  0  0
   -6.9639    4.6968  -18.1423 N   0  0  0  0  0  0  0  0  0  0  0  0
  1  2  1  0
  2  3  1  0
  2  4  1  0
  4  5  2  0
  5  6  1  0
  6  7  1  0
  7  8  2  0
  7  9  1  0
  9 10  1  0
 10 11  2  0
 11 12  1  0
 12 13  2  0
 13 14  1  0
 14 15  2  0
 14 16  1  0
 16 17  1  0
 17 18  1  0
 17 19  1  0
 19 20  2  0
  6 21  2  0
 21 22  1  0
 22 23  2  0
 23 24  1  0
 24 25  1  0
 25 26  2  0
 26 27  1  0
 27 28  2  0
 28 29  1  0
 28 30  1  0
 30 31  2  0
 24 32  1  0
 32 33  2  0
 33  4  1  0
 15 10  1  0
 32 21  1  0
 19 13  1  0
 31 25  1  0
M  END
>  <name>  (425) 
P116563

>  <alias>  (425) 
None

>  <smina_score_min>  (425) 
-8.537

>  <exports>  (425) 
['/opt/xchem-fragalysis-2/maxwin/BulkDock/OUTPUTS/openbind_xx01zvns2b_c2_elabs_1LOUTNY.sdf', '/opt/xchem-fragalysis-2/maxwin/BulkDock/OUTPUTS/openbind_xx01zvns2b_c2_elabs_1LSYIIV.sdf']

>  <tags>  (425) 
syndirella_placed,openbind_xx01zvns2b_c2_elabs,openbind_xx01zvns2b_c2_elabs_scored_6.2plus,syndirella_product,openbind_xx01zvns2b_c2_elabs_scored,openbind_xx01zvns2b_c2_elabs_scored_top80percent,BulkDock Fragalysis export

>  <subsites>  (425) 
1 - Z4590/B/203/1

>  <smiles>  (425) 
CC(C)c1cc(C(=O)Nc2ccc3c(c2)CN(C)C3=O)c2cnn(-c3ccc(F)cc3)c2n1

>  <HIPPO Pose ID>  (425) 
116563

>  <energy_score>  (425) 
-18.134743

>  <inchikey>  (425) 
HYHQCZUEJNTZTI-UHFFFAOYSA-N

>  <gnina_score_min>  (425) 
6.549

>  <gnina_score>  (425) 
6.412

>  <ref_mols>  (425) 
Z3556a

>  <HIPPO Compound ID>  (425) 
179957

>  <distance_score>  (425) 
0.495845

>  <rmsd(smina/fragmenstein)>  (425) 
0.428

>  <ref_pdb>  (425) 
Z3556a

>  <inspiration_score>  (425) 
None

$$$$
P116564
     RDKit          3D

 33 37  0  0  0  0  0  0  0  0999 V2000
  -10.3201    4.4446  -18.1852 C   0  0  0  0  0  0  0  0  0  0  0  0
   -9.0273    3.7338  -17.8370 C   0  0  0  0  0  0  0  0  0  0  0  0
   -8.4044    3.2279  -19.1282 C   0  0  0  0  0  0  0  0  0  0  0  0
   -8.0244    4.5002  -17.0023 C   0  0  0  0  0  0  0  0  0  0  0  0
   -8.1916    4.6273  -15.6236 C   0  0  0  0  0  0  0  0  0  0  0  0
   -7.1309    5.1261  -14.8615 C   0  0  0  0  0  0  0  0  0  0  0  0
   -7.2748    5.4917  -13.4376 C   0  0  0  0  0  0  0  0  0  0  0  0
   -6.9678    6.5879  -13.1673 O   0  0  0  0  0  0  0  0  0  0  0  0
   -7.8443    4.3575  -12.5442 N   0  0  0  0  0  0  0  0  0  0  0  0
   -8.0571    4.3097  -11.1609 C   0  0  0  0  0  0  0  0  0  0  0  0
   -7.7478    5.4483  -10.3822 C   0  0  0  0  0  0  0  0  0  0  0  0
   -7.8603    5.4373   -8.9900 C   0  0  0  0  0  0  0  0  0  0  0  0
   -8.2952    4.2696   -8.4061 C   0  0  0  0  0  0  0  0  0  0  0  0
   -8.6473    3.1586   -9.1544 C   0  0  0  0  0  0  0  0  0  0  0  0
   -8.5341    3.1444  -10.5409 C   0  0  0  0  0  0  0  0  0  0  0  0
   -9.0979    2.1451   -8.1908 C   0  0  0  0  0  0  0  0  0  0  0  0
   -9.5997    1.0743   -8.4514 O   0  0  0  0  0  0  0  0  0  0  0  0
   -8.9266    2.6717   -6.9467 N   0  0  0  0  0  0  0  0  0  0  0  0
   -8.4431    3.9371   -6.9897 C   0  0  0  0  0  0  0  0  0  0  0  0
   -8.1594    4.6740   -6.0643 O   0  0  0  0  0  0  0  0  0  0  0  0
   -5.9116    5.3902  -15.5105 C   0  0  0  0  0  0  0  0  0  0  0  0
   -4.6028    5.7801  -15.1781 C   0  0  0  0  0  0  0  0  0  0  0  0
   -3.7802    5.8170  -16.2313 N   0  0  0  0  0  0  0  0  0  0  0  0
   -4.5797    5.5120  -17.2985 N   0  0  0  0  0  0  0  0  0  0  0  0
   -4.0387    5.4473  -18.6206 C   0  0  0  0  0  0  0  0  0  0  0  0
   -4.8674    5.3764  -19.7530 C   0  0  0  0  0  0  0  0  0  0  0  0
   -4.3115    5.2773  -21.0313 C   0  0  0  0  0  0  0  0  0  0  0  0
   -2.9319    5.2371  -21.1805 C   0  0  0  0  0  0  0  0  0  0  0  0
   -2.4090    5.1129  -22.4078 F   0  0  0  0  0  0  0  0  0  0  0  0
   -2.0945    5.3199  -20.0749 C   0  0  0  0  0  0  0  0  0  0  0  0
   -2.6442    5.4384  -18.7942 C   0  0  0  0  0  0  0  0  0  0  0  0
   -5.8826    5.2643  -16.8860 C   0  0  0  0  0  0  0  0  0  0  0  0
   -6.9218    4.9087  -17.6526 N   0  0  0  0  0  0  0  0  0  0  0  0
  1  2  1  0
  2  3  1  0
  2  4  1  0
  4  5  2  0
  5  6  1  0
  6  7  1  0
  7  8  2  0
  7  9  1  0
  9 10  1  0
 10 11  2  0
 11 12  1  0
 12 13  2  0
 13 14  1  0
 14 15  2  0
 14 16  1  0
 16 17  2  0
 16 18  1  0
 18 19  1  0
 19 20  2  0
  6 21  2  0
 21 22  1  0
 22 23  2  0
 23 24  1  0
 24 25  1  0
 25 26  2  0
 26 27  1  0
 27 28  2  0
 28 29  1  0
 28 30  1  0
 30 31  2  0
 24 32  1  0
 32 33  2  0
 33  4  1  0
 15 10  1  0
 32 21  1  0
 19 13  1  0
 31 25  1  0
M  END
>  <name>  (426) 
P116564

>  <alias>  (426) 
None

>  <smina_score_min>  (426) 
-8.718

>  <exports>  (426) 
['/opt/xchem-fragalysis-2/maxwin/BulkDock/OUTPUTS/openbind_xx01zvns2b_c2_elabs_1LOUTNY.sdf', '/opt/xchem-fragalysis-2/maxwin/BulkDock/OUTPUTS/openbind_xx01zvns2b_c2_elabs_1LSYIIV.sdf']

>  <tags>  (426) 
syndirella_placed,openbind_xx01zvns2b_c2_elabs,openbind_xx01zvns2b_c2_elabs_scored_6.2plus,syndirella_product,openbind_xx01zvns2b_c2_elabs_scored,openbind_xx01zvns2b_c2_elabs_scored_top80percent,BulkDock Fragalysis export

>  <subsites>  (426) 
1 - Z4590/B/203/1

>  <smiles>  (426) 
CC(C)c1cc(C(=O)Nc2ccc3c(c2)C(=O)NC3=O)c2cnn(-c3ccc(F)cc3)c2n1

>  <HIPPO Pose ID>  (426) 
116564

>  <energy_score>  (426) 
-55.088653

>  <inchikey>  (426) 
GODCYDVXZGPDAP-UHFFFAOYSA-N

>  <gnina_score_min>  (426) 
6.272

>  <gnina_score>  (426) 
6.368

>  <ref_mols>  (426) 
Z3556a

>  <HIPPO Compound ID>  (426) 
179958

>  <distance_score>  (426) 
0.503699

>  <rmsd(smina/fragmenstein)>  (426) 
1.056

>  <ref_pdb>  (426) 
Z3556a

>  <inspiration_score>  (426) 
None

$$$$
P116565
     RDKit          3D

 33 37  0  0  0  0  0  0  0  0999 V2000
  -10.9320    2.8331   -5.8932 C   0  0  0  0  0  0  0  0  0  0  0  0
   -9.4855    2.4122   -6.0270 C   0  0  0  0  0  0  0  0  0  0  0  0
   -8.7486    2.9869   -7.1197 N   0  0  0  0  0  0  0  0  0  0  0  0
   -8.6779    4.4319   -7.2394 C   0  0  0  0  0  0  0  0  0  0  0  0
   -8.3650    4.6467   -8.6819 C   0  0  0  0  0  0  0  0  0  0  0  0
   -8.0039    5.8161   -9.3139 C   0  0  0  0  0  0  0  0  0  0  0  0
   -7.7166    5.7518  -10.6736 C   0  0  0  0  0  0  0  0  0  0  0  0
   -7.8057    4.5371  -11.3762 C   0  0  0  0  0  0  0  0  0  0  0  0
   -7.4526    4.4875  -12.7171 N   0  0  0  0  0  0  0  0  0  0  0  0
   -6.8622    5.5744  -13.6384 C   0  0  0  0  0  0  0  0  0  0  0  0
   -6.5077    6.6595  -13.3974 O   0  0  0  0  0  0  0  0  0  0  0  0
   -6.7950    5.1160  -15.0285 C   0  0  0  0  0  0  0  0  0  0  0  0
   -7.9613    4.6977  -15.6648 C   0  0  0  0  0  0  0  0  0  0  0  0
   -7.9147    4.4502  -17.0267 C   0  0  0  0  0  0  0  0  0  0  0  0
   -9.1966    4.1144  -17.7518 C   0  0  0  0  0  0  0  0  0  0  0  0
   -9.1840    4.6575  -19.1397 C   0  0  0  0  0  0  0  0  0  0  0  0
   -9.4141    2.6450  -17.8948 C   0  0  0  0  0  0  0  0  0  0  0  0
   -6.7998    4.5712  -17.7752 N   0  0  0  0  0  0  0  0  0  0  0  0
   -5.6944    4.9738  -17.1203 C   0  0  0  0  0  0  0  0  0  0  0  0
   -5.6092    5.2333  -15.7632 C   0  0  0  0  0  0  0  0  0  0  0  0
   -4.2494    5.5474  -15.5393 C   0  0  0  0  0  0  0  0  0  0  0  0
   -3.5791    5.8831  -14.2574 C   0  0  0  0  0  0  0  0  0  0  0  0
   -3.5278    5.4855  -16.6648 N   0  0  0  0  0  0  0  0  0  0  0  0
   -4.4338    5.2112  -17.6505 N   0  0  0  0  0  0  0  0  0  0  0  0
   -4.0283    5.2238  -19.0183 C   0  0  0  0  0  0  0  0  0  0  0  0
   -4.9642    5.2368  -20.0626 C   0  0  0  0  0  0  0  0  0  0  0  0
   -4.5382    5.2711  -21.3937 C   0  0  0  0  0  0  0  0  0  0  0  0
   -3.1784    5.2757  -21.6942 C   0  0  0  0  0  0  0  0  0  0  0  0
   -2.2414    5.2594  -20.6631 C   0  0  0  0  0  0  0  0  0  0  0  0
   -2.6606    5.2451  -19.3303 C   0  0  0  0  0  0  0  0  0  0  0  0
   -8.2238    3.3684  -10.7375 C   0  0  0  0  0  0  0  0  0  0  0  0
   -8.4875    3.4423   -9.3820 C   0  0  0  0  0  0  0  0  0  0  0  0
   -8.9173    2.3669   -8.4365 C   0  0  0  0  0  0  0  0  0  0  0  0
  1  2  1  0
  2  3  1  0
  3  4  1  0
  4  5  1  0
  5  6  2  0
  6  7  1  0
  7  8  2  0
  8  9  1  0
  9 10  1  0
 10 11  2  0
 10 12  1  0
 12 13  2  0
 13 14  1  0
 14 15  1  0
 15 16  1  0
 15 17  1  0
 14 18  2  0
 18 19  1  0
 19 20  2  0
 20 21  1  0
 21 22  1  0
 21 23  2  0
 23 24  1  0
 24 25  1  0
 25 26  2  0
 26 27  1  0
 27 28  2  0
 28 29  1  0
 29 30  2  0
  8 31  1  0
 31 32  2  0
 32 33  1  0
 33  3  1  0
 32  5  1  0
 20 12  1  0
 30 25  1  0
 24 19  1  0
M  END
>  <name>  (427) 
P116565

>  <alias>  (427) 
None

>  <smina_score_min>  (427) 
-7.764

>  <exports>  (427) 
['/opt/xchem-fragalysis-2/maxwin/BulkDock/OUTPUTS/openbind_xx01zvns2b_c2_elabs_1LOUTNY.sdf', '/opt/xchem-fragalysis-2/maxwin/BulkDock/OUTPUTS/openbind_xx01zvns2b_c2_elabs_1LSYIIV.sdf']

>  <tags>  (427) 
syndirella_placed,openbind_xx01zvns2b_c2_elabs,openbind_xx01zvns2b_c2_elabs_scored_6.2plus,syndirella_product,openbind_xx01zvns2b_c2_elabs_scored,openbind_xx01zvns2b_c2_elabs_scored_top80percent,BulkDock Fragalysis export

>  <subsites>  (427) 
1 - Z4590/B/203/1

>  <smiles>  (427) 
CCN1Cc2ccc(NC(=O)c3cc(C(C)C)nc4c3c(C)nn4-c3ccccc3)cc2C1

>  <HIPPO Pose ID>  (427) 
116565

>  <energy_score>  (427) 
-61.354025

>  <inchikey>  (427) 
GKAFCEFBWMLDSC-UHFFFAOYSA-N

>  <gnina_score_min>  (427) 
6.444

>  <gnina_score>  (427) 
6.329

>  <ref_mols>  (427) 
Z3556a

>  <HIPPO Compound ID>  (427) 
179959

>  <distance_score>  (427) 
0.594221

>  <rmsd(smina/fragmenstein)>  (427) 
1.068

>  <ref_pdb>  (427) 
Z3556a

>  <inspiration_score>  (427) 
None

$$$$
P116566
     RDKit          3D

 33 37  0  0  0  0  0  0  0  0999 V2000
   -3.9646    6.1101  -13.9003 C   0  0  0  0  0  0  0  0  0  0  0  0
   -4.5142    5.7962  -15.2438 C   0  0  0  0  0  0  0  0  0  0  0  0
   -3.7012    5.8019  -16.3082 N   0  0  0  0  0  0  0  0  0  0  0  0
   -4.5076    5.5019  -17.3715 N   0  0  0  0  0  0  0  0  0  0  0  0
   -3.9686    5.4516  -18.6935 C   0  0  0  0  0  0  0  0  0  0  0  0
   -4.7919    5.3791  -19.8270 C   0  0  0  0  0  0  0  0  0  0  0  0
   -4.2314    5.3229  -21.1070 C   0  0  0  0  0  0  0  0  0  0  0  0
   -2.8482    5.3260  -21.2660 C   0  0  0  0  0  0  0  0  0  0  0  0
   -2.0222    5.4012  -20.1465 C   0  0  0  0  0  0  0  0  0  0  0  0
   -2.5761    5.4756  -18.8661 C   0  0  0  0  0  0  0  0  0  0  0  0
   -5.8093    5.2641  -16.9549 C   0  0  0  0  0  0  0  0  0  0  0  0
   -6.8510    4.8956  -17.7143 N   0  0  0  0  0  0  0  0  0  0  0  0
   -7.9632    4.5212  -17.0590 C   0  0  0  0  0  0  0  0  0  0  0  0
   -8.9800    3.7414  -17.8635 C   0  0  0  0  0  0  0  0  0  0  0  0
   -8.3834    3.2263  -19.1612 C   0  0  0  0  0  0  0  0  0  0  0  0
  -10.2836    4.4430  -18.1881 C   0  0  0  0  0  0  0  0  0  0  0  0
   -8.1349    4.6959  -15.6902 C   0  0  0  0  0  0  0  0  0  0  0  0
   -7.0693    5.2054  -14.9448 C   0  0  0  0  0  0  0  0  0  0  0  0
   -7.2478    5.6179  -13.5445 C   0  0  0  0  0  0  0  0  0  0  0  0
   -7.0513    6.7453  -13.3075 O   0  0  0  0  0  0  0  0  0  0  0  0
   -7.7207    4.4670  -12.6241 N   0  0  0  0  0  0  0  0  0  0  0  0
   -7.9509    4.4435  -11.2475 C   0  0  0  0  0  0  0  0  0  0  0  0
   -7.7425    5.6175  -10.4937 C   0  0  0  0  0  0  0  0  0  0  0  0
   -7.9678    5.6558   -9.1157 C   0  0  0  0  0  0  0  0  0  0  0  0
   -8.4115    4.5038   -8.5047 C   0  0  0  0  0  0  0  0  0  0  0  0
   -8.6176    3.3425   -9.2512 C   0  0  0  0  0  0  0  0  0  0  0  0
   -8.3944    3.2769  -10.6199 C   0  0  0  0  0  0  0  0  0  0  0  0
   -9.1884    2.3389   -8.3420 C   0  0  0  0  0  0  0  0  0  0  0  0
   -9.5872    1.2436   -8.6711 O   0  0  0  0  0  0  0  0  0  0  0  0
   -9.2797    2.9297   -7.0955 N   0  0  0  0  0  0  0  0  0  0  0  0
  -10.0521    2.3812   -6.0116 C   0  0  0  0  0  0  0  0  0  0  0  0
   -8.7879    4.2836   -7.0801 C   0  0  0  0  0  0  0  0  0  0  0  0
   -5.8372    5.4284  -15.5825 C   0  0  0  0  0  0  0  0  0  0  0  0
  1  2  1  0
  2  3  2  0
  3  4  1  0
  4  5  1  0
  5  6  2  0
  6  7  1  0
  7  8  2  0
  8  9  1  0
  9 10  2  0
  4 11  1  0
 11 12  2  0
 12 13  1  0
 13 14  1  0
 14 15  1  0
 14 16  1  0
 13 17  2  0
 17 18  1  0
 18 19  1  0
 19 20  2  0
 19 21  1  0
 21 22  1  0
 22 23  2  0
 23 24  1  0
 24 25  2  0
 25 26  1  0
 26 27  2  0
 26 28  1  0
 28 29  2  0
 28 30  1  0
 30 31  1  0
 30 32  1  0
 18 33  2  0
 33  2  1  0
 10  5  1  0
 33 11  1  0
 27 22  1  0
 32 25  1  0
M  END
>  <name>  (428) 
P116566

>  <alias>  (428) 
None

>  <smina_score_min>  (428) 
-8.257

>  <exports>  (428) 
['/opt/xchem-fragalysis-2/maxwin/BulkDock/OUTPUTS/openbind_xx01zvns2b_c2_elabs_1LOUTNY.sdf', '/opt/xchem-fragalysis-2/maxwin/BulkDock/OUTPUTS/openbind_xx01zvns2b_c2_elabs_1LSYIIV.sdf']

>  <tags>  (428) 
syndirella_placed,openbind_xx01zvns2b_c2_elabs,openbind_xx01zvns2b_c2_elabs_scored_6.2plus,syndirella_product,openbind_xx01zvns2b_c2_elabs_scored,openbind_xx01zvns2b_c2_elabs_scored_top80percent,BulkDock Fragalysis export

>  <subsites>  (428) 
1 - Z4590/B/203/1

>  <smiles>  (428) 
Cc1nn(-c2ccccc2)c2nc(C(C)C)cc(C(=O)Nc3ccc4c(c3)C(=O)N(C)C4)c12

>  <HIPPO Pose ID>  (428) 
116566

>  <energy_score>  (428) 
-33.512164

>  <inchikey>  (428) 
HSSMDZDSKYHLAB-UHFFFAOYSA-N

>  <gnina_score_min>  (428) 
6.303

>  <gnina_score>  (428) 
6.512

>  <ref_mols>  (428) 
Z3556a

>  <HIPPO Compound ID>  (428) 
179960

>  <distance_score>  (428) 
0.570094

>  <rmsd(smina/fragmenstein)>  (428) 
0.934

>  <ref_pdb>  (428) 
Z3556a

>  <inspiration_score>  (428) 
None

$$$$
P116567
     RDKit          3D

 33 37  0  0  0  0  0  0  0  0999 V2000
   -3.7575    5.7298  -13.6167 C   0  0  0  0  0  0  0  0  0  0  0  0
   -4.2103    5.4940  -15.0116 C   0  0  0  0  0  0  0  0  0  0  0  0
   -3.3162    5.5253  -16.0080 N   0  0  0  0  0  0  0  0  0  0  0  0
   -4.0469    5.3296  -17.1453 N   0  0  0  0  0  0  0  0  0  0  0  0
   -3.4195    5.4163  -18.4268 C   0  0  0  0  0  0  0  0  0  0  0  0
   -4.1556    5.4099  -19.6199 C   0  0  0  0  0  0  0  0  0  0  0  0
   -3.5062    5.4885  -20.8559 C   0  0  0  0  0  0  0  0  0  0  0  0
   -2.1186    5.5740  -20.9117 C   0  0  0  0  0  0  0  0  0  0  0  0
   -1.3781    5.5970  -19.7325 C   0  0  0  0  0  0  0  0  0  0  0  0
   -2.0223    5.5278  -18.4957 C   0  0  0  0  0  0  0  0  0  0  0  0
   -5.3747    5.0758  -16.8406 C   0  0  0  0  0  0  0  0  0  0  0  0
   -6.3549    4.7793  -17.7009 N   0  0  0  0  0  0  0  0  0  0  0  0
   -7.5747    4.5684  -17.1834 C   0  0  0  0  0  0  0  0  0  0  0  0
   -8.6330    4.3643  -18.2416 C   0  0  0  0  0  0  0  0  0  0  0  0
   -9.8573    3.6064  -17.8057 C   0  0  0  0  0  0  0  0  0  0  0  0
   -8.1061    3.6782  -19.4876 C   0  0  0  0  0  0  0  0  0  0  0  0
   -7.8517    4.7172  -15.8216 C   0  0  0  0  0  0  0  0  0  0  0  0
   -6.8112    5.0499  -14.9475 C   0  0  0  0  0  0  0  0  0  0  0  0
   -7.0860    5.5008  -13.5686 C   0  0  0  0  0  0  0  0  0  0  0  0
   -6.7640    6.5983  -13.3250 O   0  0  0  0  0  0  0  0  0  0  0  0
   -7.7348    4.4188  -12.6648 N   0  0  0  0  0  0  0  0  0  0  0  0
   -8.0263    4.4328  -11.2844 C   0  0  0  0  0  0  0  0  0  0  0  0
   -8.4685    3.2553  -10.6570 C   0  0  0  0  0  0  0  0  0  0  0  0
   -8.6607    3.2849   -9.2763 C   0  0  0  0  0  0  0  0  0  0  0  0
   -8.4016    4.4159   -8.5035 C   0  0  0  0  0  0  0  0  0  0  0  0
   -8.0157    5.5906   -9.1074 C   0  0  0  0  0  0  0  0  0  0  0  0
   -7.8468    5.5930  -10.4938 C   0  0  0  0  0  0  0  0  0  0  0  0
   -7.4920    6.7646  -11.0333 F   0  0  0  0  0  0  0  0  0  0  0  0
   -8.5926    4.1203   -7.0563 C   0  0  0  0  0  0  0  0  0  0  0  0
   -9.1231    2.7896   -7.0746 N   0  0  0  0  0  0  0  0  0  0  0  0
   -9.1315    2.2470   -8.3437 C   0  0  0  0  0  0  0  0  0  0  0  0
   -9.5062    1.1304   -8.6174 O   0  0  0  0  0  0  0  0  0  0  0  0
   -5.5156    5.2016  -15.4713 C   0  0  0  0  0  0  0  0  0  0  0  0
  1  2  1  0
  2  3  2  0
  3  4  1  0
  4  5  1  0
  5  6  2  0
  6  7  1  0
  7  8  2  0
  8  9  1  0
  9 10  2  0
  4 11  1  0
 11 12  2  0
 12 13  1  0
 13 14  1  0
 14 15  1  0
 14 16  1  0
 13 17  2  0
 17 18  1  0
 18 19  1  0
 19 20  2  0
 19 21  1  0
 21 22  1  0
 22 23  2  0
 23 24  1  0
 24 25  2  0
 25 26  1  0
 26 27  2  0
 27 28  1  0
 25 29  1  0
 29 30  1  0
 30 31  1  0
 31 32  2  0
 18 33  2  0
 33  2  1  0
 10  5  1  0
 33 11  1  0
 27 22  1  0
 31 24  1  0
M  END
>  <name>  (429) 
P116567

>  <alias>  (429) 
None

>  <smina_score_min>  (429) 
-8.892

>  <exports>  (429) 
['/opt/xchem-fragalysis-2/maxwin/BulkDock/OUTPUTS/openbind_xx01zvns2b_c2_elabs_1LOUTNY.sdf', '/opt/xchem-fragalysis-2/maxwin/BulkDock/OUTPUTS/openbind_xx01zvns2b_c2_elabs_1LSYIIV.sdf']

>  <tags>  (429) 
syndirella_placed,openbind_xx01zvns2b_c2_elabs,openbind_xx01zvns2b_c2_elabs_scored_6.2plus,syndirella_product,openbind_xx01zvns2b_c2_elabs_scored,openbind_xx01zvns2b_c2_elabs_scored_top80percent,BulkDock Fragalysis export

>  <subsites>  (429) 
1 - Z4590/B/203/1

>  <smiles>  (429) 
Cc1nn(-c2ccccc2)c2nc(C(C)C)cc(C(=O)Nc3cc4c(cc3F)CNC4=O)c12

>  <HIPPO Pose ID>  (429) 
116567

>  <energy_score>  (429) 
-44.641948

>  <inchikey>  (429) 
MKDJLSGDCPBVHJ-UHFFFAOYSA-N

>  <gnina_score_min>  (429) 
6.237

>  <gnina_score>  (429) 
6.541

>  <ref_mols>  (429) 
Z3556a

>  <HIPPO Compound ID>  (429) 
179963

>  <distance_score>  (429) 
0.642939

>  <rmsd(smina/fragmenstein)>  (429) 
1.386

>  <ref_pdb>  (429) 
Z3556a

>  <inspiration_score>  (429) 
None

$$$$
P116568
     RDKit          3D

 33 37  0  0  0  0  0  0  0  0999 V2000
   -3.7010    5.9077  -14.0249 C   0  0  0  0  0  0  0  0  0  0  0  0
   -4.3181    5.5638  -15.3311 C   0  0  0  0  0  0  0  0  0  0  0  0
   -3.5601    5.5244  -16.4343 N   0  0  0  0  0  0  0  0  0  0  0  0
   -4.4296    5.2403  -17.4506 N   0  0  0  0  0  0  0  0  0  0  0  0
   -3.9822    5.2555  -18.8064 C   0  0  0  0  0  0  0  0  0  0  0  0
   -2.6060    5.2941  -19.0748 C   0  0  0  0  0  0  0  0  0  0  0  0
   -2.1449    5.3020  -20.3937 C   0  0  0  0  0  0  0  0  0  0  0  0
   -3.0482    5.2944  -21.4548 C   0  0  0  0  0  0  0  0  0  0  0  0
   -4.4166    5.2753  -21.1986 C   0  0  0  0  0  0  0  0  0  0  0  0
   -4.8843    5.2492  -19.8811 C   0  0  0  0  0  0  0  0  0  0  0  0
   -5.7026    4.9853  -16.9606 C   0  0  0  0  0  0  0  0  0  0  0  0
   -6.7815    4.5851  -17.6572 N   0  0  0  0  0  0  0  0  0  0  0  0
   -7.9196    4.4439  -16.9516 C   0  0  0  0  0  0  0  0  0  0  0  0
   -9.1724    4.1278  -17.7340 C   0  0  0  0  0  0  0  0  0  0  0  0
   -9.4143    2.6623  -17.8860 C   0  0  0  0  0  0  0  0  0  0  0  0
   -9.0816    4.6637  -19.1230 C   0  0  0  0  0  0  0  0  0  0  0  0
   -8.0096    4.6577  -15.5857 C   0  0  0  0  0  0  0  0  0  0  0  0
   -6.8675    5.0700  -14.8992 C   0  0  0  0  0  0  0  0  0  0  0  0
   -7.0029    5.5036  -13.5035 C   0  0  0  0  0  0  0  0  0  0  0  0
   -6.7883    6.6232  -13.2536 O   0  0  0  0  0  0  0  0  0  0  0  0
   -7.5227    4.3595  -12.6062 N   0  0  0  0  0  0  0  0  0  0  0  0
   -7.7875    4.3312  -11.2413 C   0  0  0  0  0  0  0  0  0  0  0  0
   -7.7284    5.5149  -10.4805 C   0  0  0  0  0  0  0  0  0  0  0  0
   -8.0689    5.5139   -9.1279 C   0  0  0  0  0  0  0  0  0  0  0  0
   -8.4430    4.3086   -8.5729 C   0  0  0  0  0  0  0  0  0  0  0  0
   -8.4862    3.1233   -9.3043 C   0  0  0  0  0  0  0  0  0  0  0  0
   -8.1652    3.1187  -10.6515 C   0  0  0  0  0  0  0  0  0  0  0  0
   -8.9492    2.0095   -8.4275 C   0  0  0  0  0  0  0  0  0  0  0  0
   -9.2491    2.6958   -7.1816 N   0  0  0  0  0  0  0  0  0  0  0  0
  -10.0989    2.1042   -6.1829 C   0  0  0  0  0  0  0  0  0  0  0  0
   -8.9573    4.0433   -7.2251 C   0  0  0  0  0  0  0  0  0  0  0  0
   -9.1487    4.8988   -6.3800 O   0  0  0  0  0  0  0  0  0  0  0  0
   -5.6630    5.2225  -15.5966 C   0  0  0  0  0  0  0  0  0  0  0  0
  1  2  1  0
  2  3  2  0
  3  4  1  0
  4  5  1  0
  5  6  2  0
  6  7  1  0
  7  8  2  0
  8  9  1  0
  9 10  2  0
  4 11  1  0
 11 12  2  0
 12 13  1  0
 13 14  1  0
 14 15  1  0
 14 16  1  0
 13 17  2  0
 17 18  1  0
 18 19  1  0
 19 20  2  0
 19 21  1  0
 21 22  1  0
 22 23  2  0
 23 24  1  0
 24 25  2  0
 25 26  1  0
 26 27  2  0
 26 28  1  0
 28 29  1  0
 29 30  1  0
 29 31  1  0
 31 32  2  0
 18 33  2  0
 33  2  1  0
 10  5  1  0
 33 11  1  0
 27 22  1  0
 31 25  1  0
M  END
>  <name>  (430) 
P116568

>  <alias>  (430) 
None

>  <smina_score_min>  (430) 
-8.623

>  <exports>  (430) 
['/opt/xchem-fragalysis-2/maxwin/BulkDock/OUTPUTS/openbind_xx01zvns2b_c2_elabs_1LOUTNY.sdf', '/opt/xchem-fragalysis-2/maxwin/BulkDock/OUTPUTS/openbind_xx01zvns2b_c2_elabs_1LSYIIV.sdf']

>  <tags>  (430) 
syndirella_placed,openbind_xx01zvns2b_c2_elabs,openbind_xx01zvns2b_c2_elabs_scored_6.2plus,syndirella_product,openbind_xx01zvns2b_c2_elabs_scored,openbind_xx01zvns2b_c2_elabs_scored_top80percent,BulkDock Fragalysis export

>  <subsites>  (430) 
1 - Z4590/B/203/1

>  <smiles>  (430) 
Cc1nn(-c2ccccc2)c2nc(C(C)C)cc(C(=O)Nc3ccc4c(c3)CN(C)C4=O)c12

>  <HIPPO Pose ID>  (430) 
116568

>  <energy_score>  (430) 
-55.494946

>  <inchikey>  (430) 
CNFJJCDEJQDVEJ-UHFFFAOYSA-N

>  <gnina_score_min>  (430) 
6.376

>  <gnina_score>  (430) 
6.283

>  <ref_mols>  (430) 
Z3556a

>  <HIPPO Compound ID>  (430) 
179964

>  <distance_score>  (430) 
0.510078

>  <rmsd(smina/fragmenstein)>  (430) 
1.053

>  <ref_pdb>  (430) 
Z3556a

>  <inspiration_score>  (430) 
None

$$$$
P116569
     RDKit          3D

 33 37  0  0  0  0  0  0  0  0999 V2000
   -3.7449    5.6974  -13.8144 C   0  0  0  0  0  0  0  0  0  0  0  0
   -4.3638    5.4368  -15.1393 C   0  0  0  0  0  0  0  0  0  0  0  0
   -3.5947    5.4550  -16.2358 N   0  0  0  0  0  0  0  0  0  0  0  0
   -4.4503    5.2142  -17.2731 N   0  0  0  0  0  0  0  0  0  0  0  0
   -3.9779    5.2574  -18.6213 C   0  0  0  0  0  0  0  0  0  0  0  0
   -2.5963    5.3063  -18.8619 C   0  0  0  0  0  0  0  0  0  0  0  0
   -2.1076    5.3288  -20.1706 C   0  0  0  0  0  0  0  0  0  0  0  0
   -2.9887    5.3261  -21.2500 C   0  0  0  0  0  0  0  0  0  0  0  0
   -4.3619    5.2989  -21.0226 C   0  0  0  0  0  0  0  0  0  0  0  0
   -4.8568    5.2594  -19.7150 C   0  0  0  0  0  0  0  0  0  0  0  0
   -5.7330    4.9593  -16.8085 C   0  0  0  0  0  0  0  0  0  0  0  0
   -6.8035    4.6107  -17.5389 N   0  0  0  0  0  0  0  0  0  0  0  0
   -7.9500    4.4324  -16.8609 C   0  0  0  0  0  0  0  0  0  0  0  0
   -9.1716    4.1396  -17.6988 C   0  0  0  0  0  0  0  0  0  0  0  0
   -9.4200    2.6765  -17.8753 C   0  0  0  0  0  0  0  0  0  0  0  0
   -9.0202    4.6792  -19.0855 C   0  0  0  0  0  0  0  0  0  0  0  0
   -8.0639    4.5756  -15.4827 C   0  0  0  0  0  0  0  0  0  0  0  0
   -6.9330    4.9447  -14.7506 C   0  0  0  0  0  0  0  0  0  0  0  0
   -7.0589    5.3402  -13.3325 C   0  0  0  0  0  0  0  0  0  0  0  0
   -6.6528    6.4001  -13.0519 O   0  0  0  0  0  0  0  0  0  0  0  0
   -7.7613    4.2691  -12.4579 N   0  0  0  0  0  0  0  0  0  0  0  0
   -8.0151    4.2435  -11.0822 C   0  0  0  0  0  0  0  0  0  0  0  0
   -7.7343    5.3955  -10.3135 C   0  0  0  0  0  0  0  0  0  0  0  0
   -7.8785    5.4000   -8.9245 C   0  0  0  0  0  0  0  0  0  0  0  0
   -8.3184    4.2353   -8.3373 C   0  0  0  0  0  0  0  0  0  0  0  0
   -8.6521    3.1150   -9.0803 C   0  0  0  0  0  0  0  0  0  0  0  0
   -8.5085    3.0857  -10.4624 C   0  0  0  0  0  0  0  0  0  0  0  0
   -9.1170    2.1086   -8.1166 C   0  0  0  0  0  0  0  0  0  0  0  0
   -9.6219    1.0388   -8.3766 O   0  0  0  0  0  0  0  0  0  0  0  0
   -8.9592    2.6437   -6.8743 N   0  0  0  0  0  0  0  0  0  0  0  0
   -8.4878    3.9138   -6.9209 C   0  0  0  0  0  0  0  0  0  0  0  0
   -8.2293    4.6621   -5.9975 O   0  0  0  0  0  0  0  0  0  0  0  0
   -5.7132    5.1226  -15.4328 C   0  0  0  0  0  0  0  0  0  0  0  0
  1  2  1  0
  2  3  2  0
  3  4  1  0
  4  5  1  0
  5  6  2  0
  6  7  1  0
  7  8  2  0
  8  9  1  0
  9 10  2  0
  4 11  1  0
 11 12  2  0
 12 13  1  0
 13 14  1  0
 14 15  1  0
 14 16  1  0
 13 17  2  0
 17 18  1  0
 18 19  1  0
 19 20  2  0
 19 21  1  0
 21 22  1  0
 22 23  2  0
 23 24  1  0
 24 25  2  0
 25 26  1  0
 26 27  2  0
 26 28  1  0
 28 29  2  0
 28 30  1  0
 30 31  1  0
 31 32  2  0
 18 33  2  0
 33  2  1  0
 10  5  1  0
 33 11  1  0
 27 22  1  0
 31 25  1  0
M  END
>  <name>  (431) 
P116569

>  <alias>  (431) 
None

>  <smina_score_min>  (431) 
-8.384

>  <exports>  (431) 
['/opt/xchem-fragalysis-2/maxwin/BulkDock/OUTPUTS/openbind_xx01zvns2b_c2_elabs_1LOUTNY.sdf', '/opt/xchem-fragalysis-2/maxwin/BulkDock/OUTPUTS/openbind_xx01zvns2b_c2_elabs_1LSYIIV.sdf']

>  <tags>  (431) 
syndirella_placed,openbind_xx01zvns2b_c2_elabs,openbind_xx01zvns2b_c2_elabs_scored_6.2plus,syndirella_product,openbind_xx01zvns2b_c2_elabs_scored,openbind_xx01zvns2b_c2_elabs_scored_top80percent,BulkDock Fragalysis export

>  <subsites>  (431) 
1 - Z4590/B/203/1

>  <smiles>  (431) 
Cc1nn(-c2ccccc2)c2nc(C(C)C)cc(C(=O)Nc3ccc4c(c3)C(=O)NC4=O)c12

>  <HIPPO Pose ID>  (431) 
116569

>  <energy_score>  (431) 
-57.635478

>  <inchikey>  (431) 
UZJPZDZSPSMHMJ-UHFFFAOYSA-N

>  <gnina_score_min>  (431) 
6.219

>  <gnina_score>  (431) 
6.241

>  <ref_mols>  (431) 
Z3556a

>  <HIPPO Compound ID>  (431) 
179965

>  <distance_score>  (431) 
0.507506

>  <rmsd(smina/fragmenstein)>  (431) 
1.168

>  <ref_pdb>  (431) 
Z3556a

>  <inspiration_score>  (431) 
None

$$$$
P116574
     RDKit          3D

 33 37  0  0  0  0  0  0  0  0999 V2000
   -5.5194   11.1607  -21.2783 C   0  0  0  0  0  0  0  0  0  0  0  0
   -4.4327   10.2440  -21.8194 C   0  0  0  0  0  0  0  0  0  0  0  0
   -4.3554    8.9528  -21.0476 C   0  0  0  0  0  0  0  0  0  0  0  0
   -3.5079    8.8355  -19.9395 C   0  0  0  0  0  0  0  0  0  0  0  0
   -3.4428    7.6404  -19.2184 C   0  0  0  0  0  0  0  0  0  0  0  0
   -4.2353    6.5435  -19.5819 C   0  0  0  0  0  0  0  0  0  0  0  0
   -4.1485    5.2364  -18.8326 C   0  0  0  0  0  0  0  0  0  0  0  0
   -4.6605    5.3314  -17.4767 N   0  0  0  0  0  0  0  0  0  0  0  0
   -3.8395    5.6882  -16.4535 N   0  0  0  0  0  0  0  0  0  0  0  0
   -4.6518    5.6566  -15.3903 C   0  0  0  0  0  0  0  0  0  0  0  0
   -5.9559    5.2133  -15.7036 C   0  0  0  0  0  0  0  0  0  0  0  0
   -7.1660    4.9697  -15.0334 C   0  0  0  0  0  0  0  0  0  0  0  0
   -7.2728    5.3922  -13.6180 C   0  0  0  0  0  0  0  0  0  0  0  0
   -6.8294    6.4476  -13.3775 O   0  0  0  0  0  0  0  0  0  0  0  0
   -7.8723    4.3142  -12.6752 N   0  0  0  0  0  0  0  0  0  0  0  0
   -8.1296    4.3509  -11.2900 C   0  0  0  0  0  0  0  0  0  0  0  0
   -8.5636    3.1859  -10.6359 C   0  0  0  0  0  0  0  0  0  0  0  0
   -8.7111    3.2325   -9.2507 C   0  0  0  0  0  0  0  0  0  0  0  0
   -8.4181    4.3703   -8.4998 C   0  0  0  0  0  0  0  0  0  0  0  0
   -8.0376    5.5338   -9.1289 C   0  0  0  0  0  0  0  0  0  0  0  0
   -7.9110    5.5181  -10.5196 C   0  0  0  0  0  0  0  0  0  0  0  0
   -7.5724    6.6817  -11.0865 F   0  0  0  0  0  0  0  0  0  0  0  0
   -8.5715    4.0935   -7.0447 C   0  0  0  0  0  0  0  0  0  0  0  0
   -9.1164    2.7680   -7.0310 N   0  0  0  0  0  0  0  0  0  0  0  0
   -9.1612    2.2084   -8.2924 C   0  0  0  0  0  0  0  0  0  0  0  0
   -9.5494    1.0899   -8.5398 O   0  0  0  0  0  0  0  0  0  0  0  0
   -8.2459    4.5014  -15.7876 C   0  0  0  0  0  0  0  0  0  0  0  0
   -8.0913    4.3457  -17.1710 C   0  0  0  0  0  0  0  0  0  0  0  0
   -9.2510    3.9022  -18.0190 C   0  0  0  0  0  0  0  0  0  0  0  0
   -6.9403    4.5822  -17.8428 N   0  0  0  0  0  0  0  0  0  0  0  0
   -5.9274    5.0062  -17.0699 C   0  0  0  0  0  0  0  0  0  0  0  0
   -5.0951    6.6693  -20.6804 C   0  0  0  0  0  0  0  0  0  0  0  0
   -5.1488    7.8588  -21.4102 C   0  0  0  0  0  0  0  0  0  0  0  0
  1  2  1  0
  2  3  1  0
  3  4  2  0
  4  5  1  0
  5  6  2  0
  6  7  1  0
  7  8  1  0
  8  9  1  0
  9 10  2  0
 10 11  1  0
 11 12  2  0
 12 13  1  0
 13 14  2  0
 13 15  1  0
 15 16  1  0
 16 17  2  0
 17 18  1  0
 18 19  2  0
 19 20  1  0
 20 21  2  0
 21 22  1  0
 19 23  1  0
 23 24  1  0
 24 25  1  0
 25 26  2  0
 12 27  1  0
 27 28  2  0
 28 29  1  0
 28 30  1  0
 30 31  2  0
  6 32  1  0
 32 33  2  0
 33  3  1  0
 31  8  1  0
 31 11  1  0
 21 16  1  0
 25 18  1  0
M  END
>  <name>  (432) 
P116574

>  <alias>  (432) 
None

>  <smina_score_min>  (432) 
-8.844

>  <exports>  (432) 
['/opt/xchem-fragalysis-2/maxwin/BulkDock/OUTPUTS/openbind_xx01zvns2b_c2_elabs_1LOUTNY.sdf', '/opt/xchem-fragalysis-2/maxwin/BulkDock/OUTPUTS/openbind_xx01zvns2b_c2_elabs_1LSYIIV.sdf']

>  <tags>  (432) 
syndirella_placed,openbind_xx01zvns2b_c2_elabs,openbind_xx01zvns2b_c2_elabs_scored_6.2plus,syndirella_product,openbind_xx01zvns2b_c2_elabs_scored,openbind_xx01zvns2b_c2_elabs_scored_top80percent,BulkDock Fragalysis export

>  <subsites>  (432) 
1 - Z4590/B/203/1

>  <smiles>  (432) 
CCc1ccc(Cn2ncc3c(C(=O)Nc4cc5c(cc4F)CNC5=O)cc(C)nc32)cc1

>  <HIPPO Pose ID>  (432) 
116574

>  <energy_score>  (432) 
-18.285949

>  <inchikey>  (432) 
DMVNWAKYANECEJ-UHFFFAOYSA-N

>  <gnina_score_min>  (432) 
6.58

>  <gnina_score>  (432) 
6.357

>  <ref_mols>  (432) 
Z3556a

>  <HIPPO Compound ID>  (432) 
179980

>  <distance_score>  (432) 
0.380074

>  <rmsd(smina/fragmenstein)>  (432) 
1.152

>  <ref_pdb>  (432) 
Z3556a

>  <inspiration_score>  (432) 
None

$$$$
P116575
     RDKit          3D

 33 37  0  0  0  0  0  0  0  0999 V2000
   -3.9544    9.8278  -23.9083 C   0  0  0  0  0  0  0  0  0  0  0  0
   -4.7539    9.9661  -22.6220 C   0  0  0  0  0  0  0  0  0  0  0  0
   -4.5077    8.8146  -21.6821 C   0  0  0  0  0  0  0  0  0  0  0  0
   -5.2506    7.6344  -21.7972 C   0  0  0  0  0  0  0  0  0  0  0  0
   -5.0210    6.5634  -20.9314 C   0  0  0  0  0  0  0  0  0  0  0  0
   -4.0227    6.6403  -19.9520 C   0  0  0  0  0  0  0  0  0  0  0  0
   -3.7564    5.4686  -19.0407 C   0  0  0  0  0  0  0  0  0  0  0  0
   -4.3804    5.6303  -17.7407 N   0  0  0  0  0  0  0  0  0  0  0  0
   -3.6744    6.1488  -16.7018 N   0  0  0  0  0  0  0  0  0  0  0  0
   -4.5521    6.1203  -15.6926 C   0  0  0  0  0  0  0  0  0  0  0  0
   -5.7874    5.5460  -16.0578 C   0  0  0  0  0  0  0  0  0  0  0  0
   -7.0157    5.2469  -15.4603 C   0  0  0  0  0  0  0  0  0  0  0  0
   -7.2627    5.6775  -14.0744 C   0  0  0  0  0  0  0  0  0  0  0  0
   -7.1105    6.8463  -13.8611 O   0  0  0  0  0  0  0  0  0  0  0  0
   -7.6571    4.6098  -13.2050 N   0  0  0  0  0  0  0  0  0  0  0  0
   -7.8945    4.5891  -11.8300 C   0  0  0  0  0  0  0  0  0  0  0  0
   -7.8948    5.7815  -11.0761 C   0  0  0  0  0  0  0  0  0  0  0  0
   -8.1512    5.7661   -9.7034 C   0  0  0  0  0  0  0  0  0  0  0  0
   -8.4037    4.5415   -9.1229 C   0  0  0  0  0  0  0  0  0  0  0  0
   -8.4014    3.3511   -9.8488 C   0  0  0  0  0  0  0  0  0  0  0  0
   -8.1431    3.3576  -11.2102 C   0  0  0  0  0  0  0  0  0  0  0  0
   -8.7353    2.2111   -8.9456 C   0  0  0  0  0  0  0  0  0  0  0  0
   -9.0168    2.8866   -7.6925 N   0  0  0  0  0  0  0  0  0  0  0  0
   -9.4587    2.1538   -6.5371 C   0  0  0  0  0  0  0  0  0  0  0  0
   -8.7793    4.2416   -7.7358 C   0  0  0  0  0  0  0  0  0  0  0  0
   -8.8791    5.0724   -6.8523 O   0  0  0  0  0  0  0  0  0  0  0  0
   -8.0145    4.6583  -16.2391 C   0  0  0  0  0  0  0  0  0  0  0  0
   -7.7532    4.4125  -17.5875 C   0  0  0  0  0  0  0  0  0  0  0  0
   -8.8509    3.8653  -18.4573 C   0  0  0  0  0  0  0  0  0  0  0  0
   -6.5741    4.6815  -18.2021 N   0  0  0  0  0  0  0  0  0  0  0  0
   -5.6480    5.2377  -17.3988 C   0  0  0  0  0  0  0  0  0  0  0  0
   -3.2789    7.8217  -19.8368 C   0  0  0  0  0  0  0  0  0  0  0  0
   -3.5183    8.8981  -20.6951 C   0  0  0  0  0  0  0  0  0  0  0  0
  1  2  1  0
  2  3  1  0
  3  4  2  0
  4  5  1  0
  5  6  2  0
  6  7  1  0
  7  8  1  0
  8  9  1  0
  9 10  2  0
 10 11  1  0
 11 12  2  0
 12 13  1  0
 13 14  2  0
 13 15  1  0
 15 16  1  0
 16 17  2  0
 17 18  1  0
 18 19  2  0
 19 20  1  0
 20 21  2  0
 20 22  1  0
 22 23  1  0
 23 24  1  0
 23 25  1  0
 25 26  2  0
 12 27  1  0
 27 28  2  0
 28 29  1  0
 28 30  1  0
 30 31  2  0
  6 32  1  0
 32 33  2  0
 33  3  1  0
 31  8  1  0
 31 11  1  0
 21 16  1  0
 25 19  1  0
M  END
>  <name>  (433) 
P116575

>  <alias>  (433) 
None

>  <smina_score_min>  (433) 
-8.893

>  <exports>  (433) 
['/opt/xchem-fragalysis-2/maxwin/BulkDock/OUTPUTS/openbind_xx01zvns2b_c2_elabs_1LOUTNY.sdf', '/opt/xchem-fragalysis-2/maxwin/BulkDock/OUTPUTS/openbind_xx01zvns2b_c2_elabs_1LSYIIV.sdf']

>  <tags>  (433) 
syndirella_placed,openbind_xx01zvns2b_c2_elabs,openbind_xx01zvns2b_c2_elabs_scored_6.2plus,syndirella_product,openbind_xx01zvns2b_c2_elabs_scored,openbind_xx01zvns2b_c2_elabs_scored_top80percent,BulkDock Fragalysis export

>  <subsites>  (433) 
1 - Z4590/B/203/1

>  <smiles>  (433) 
CCc1ccc(Cn2ncc3c(C(=O)Nc4ccc5c(c4)CN(C)C5=O)cc(C)nc32)cc1

>  <HIPPO Pose ID>  (433) 
116575

>  <energy_score>  (433) 
-52.211236

>  <inchikey>  (433) 
CKNYJJWUALRSJC-UHFFFAOYSA-N

>  <gnina_score_min>  (433) 
6.475

>  <gnina_score>  (433) 
6.242

>  <ref_mols>  (433) 
Z3556a

>  <HIPPO Compound ID>  (433) 
179981

>  <distance_score>  (433) 
0.741609

>  <rmsd(smina/fragmenstein)>  (433) 
0.908

>  <ref_pdb>  (433) 
Z3556a

>  <inspiration_score>  (433) 
None

$$$$
P116576
     RDKit          3D

 33 37  0  0  0  0  0  0  0  0999 V2000
   -5.5099   11.0733  -21.3672 C   0  0  0  0  0  0  0  0  0  0  0  0
   -4.4202   10.1397  -21.8720 C   0  0  0  0  0  0  0  0  0  0  0  0
   -4.3389    8.8781  -21.0526 C   0  0  0  0  0  0  0  0  0  0  0  0
   -3.4677    8.7940  -19.9597 C   0  0  0  0  0  0  0  0  0  0  0  0
   -3.3948    7.6250  -19.1978 C   0  0  0  0  0  0  0  0  0  0  0  0
   -4.2012    6.5218  -19.5060 C   0  0  0  0  0  0  0  0  0  0  0  0
   -4.1035    5.2423  -18.7122 C   0  0  0  0  0  0  0  0  0  0  0  0
   -4.6677    5.3666  -17.3801 N   0  0  0  0  0  0  0  0  0  0  0  0
   -3.8911    5.7641  -16.3384 N   0  0  0  0  0  0  0  0  0  0  0  0
   -4.7305    5.7104  -15.2974 C   0  0  0  0  0  0  0  0  0  0  0  0
   -6.0150    5.2387  -15.6464 C   0  0  0  0  0  0  0  0  0  0  0  0
   -7.2377    4.9696  -15.0120 C   0  0  0  0  0  0  0  0  0  0  0  0
   -7.4090    5.3919  -13.6033 C   0  0  0  0  0  0  0  0  0  0  0  0
   -7.0685    6.4840  -13.3581 O   0  0  0  0  0  0  0  0  0  0  0  0
   -7.9822    4.2859  -12.6783 N   0  0  0  0  0  0  0  0  0  0  0  0
   -8.1603    4.2640  -11.2872 C   0  0  0  0  0  0  0  0  0  0  0  0
   -7.8687    5.4305  -10.5424 C   0  0  0  0  0  0  0  0  0  0  0  0
   -7.9418    5.4495   -9.1467 C   0  0  0  0  0  0  0  0  0  0  0  0
   -8.3286    4.2847   -8.5239 C   0  0  0  0  0  0  0  0  0  0  0  0
   -8.6678    3.1468   -9.2374 C   0  0  0  0  0  0  0  0  0  0  0  0
   -8.5831    3.1007  -10.6258 C   0  0  0  0  0  0  0  0  0  0  0  0
   -9.0865    2.1516   -8.2403 C   0  0  0  0  0  0  0  0  0  0  0  0
   -9.5896    1.0724   -8.4606 O   0  0  0  0  0  0  0  0  0  0  0  0
   -8.8961    2.7105   -7.0135 N   0  0  0  0  0  0  0  0  0  0  0  0
   -8.4460    3.9860   -7.0968 C   0  0  0  0  0  0  0  0  0  0  0  0
   -8.1734    4.7547   -6.1943 O   0  0  0  0  0  0  0  0  0  0  0  0
   -8.2857    4.4814  -15.7971 C   0  0  0  0  0  0  0  0  0  0  0  0
   -8.0927    4.3365  -17.1762 C   0  0  0  0  0  0  0  0  0  0  0  0
   -9.2271    3.8804  -18.0518 C   0  0  0  0  0  0  0  0  0  0  0  0
   -6.9296    4.5999  -17.8172 N   0  0  0  0  0  0  0  0  0  0  0  0
   -5.9442    5.0324  -17.0123 C   0  0  0  0  0  0  0  0  0  0  0  0
   -5.0897    6.6172  -20.5845 C   0  0  0  0  0  0  0  0  0  0  0  0
   -5.1508    7.7796  -21.3560 C   0  0  0  0  0  0  0  0  0  0  0  0
  1  2  1  0
  2  3  1  0
  3  4  2  0
  4  5  1  0
  5  6  2  0
  6  7  1  0
  7  8  1  0
  8  9  1  0
  9 10  2  0
 10 11  1  0
 11 12  2  0
 12 13  1  0
 13 14  2  0
 13 15  1  0
 15 16  1  0
 16 17  2  0
 17 18  1  0
 18 19  2  0
 19 20  1  0
 20 21  2  0
 20 22  1  0
 22 23  2  0
 22 24  1  0
 24 25  1  0
 25 26  2  0
 12 27  1  0
 27 28  2  0
 28 29  1  0
 28 30  1  0
 30 31  2  0
  6 32  1  0
 32 33  2  0
 33  3  1  0
 31  8  1  0
 31 11  1  0
 21 16  1  0
 25 19  1  0
M  END
>  <name>  (434) 
P116576

>  <alias>  (434) 
None

>  <smina_score_min>  (434) 
-8.888

>  <exports>  (434) 
['/opt/xchem-fragalysis-2/maxwin/BulkDock/OUTPUTS/openbind_xx01zvns2b_c2_elabs_1LOUTNY.sdf', '/opt/xchem-fragalysis-2/maxwin/BulkDock/OUTPUTS/openbind_xx01zvns2b_c2_elabs_1LSYIIV.sdf']

>  <tags>  (434) 
syndirella_placed,openbind_xx01zvns2b_c2_elabs,openbind_xx01zvns2b_c2_elabs_scored_6.2plus,syndirella_product,openbind_xx01zvns2b_c2_elabs_scored,openbind_xx01zvns2b_c2_elabs_scored_top80percent,BulkDock Fragalysis export

>  <subsites>  (434) 
1 - Z4590/B/203/1

>  <smiles>  (434) 
CCc1ccc(Cn2ncc3c(C(=O)Nc4ccc5c(c4)C(=O)NC5=O)cc(C)nc32)cc1

>  <HIPPO Pose ID>  (434) 
116576

>  <energy_score>  (434) 
-26.319661

>  <inchikey>  (434) 
GNDBXVFPDQZNOX-UHFFFAOYSA-N

>  <gnina_score_min>  (434) 
6.424

>  <gnina_score>  (434) 
6.21

>  <ref_mols>  (434) 
Z3556a

>  <HIPPO Compound ID>  (434) 
179982

>  <distance_score>  (434) 
0.373339

>  <rmsd(smina/fragmenstein)>  (434) 
0.907

>  <ref_pdb>  (434) 
Z3556a

>  <inspiration_score>  (434) 
None

$$$$
P116584
     RDKit          3D

 33 37  0  0  0  0  0  0  0  0999 V2000
   -2.4195    4.7295  -19.2902 C   0  0  0  0  0  0  0  0  0  0  0  0
   -3.8394    5.2720  -19.2350 C   0  0  0  0  0  0  0  0  0  0  0  0
   -4.4039    5.3220  -17.9040 N   0  0  0  0  0  0  0  0  0  0  0  0
   -3.6796    5.8277  -16.8719 N   0  0  0  0  0  0  0  0  0  0  0  0
   -4.5587    5.8565  -15.8651 C   0  0  0  0  0  0  0  0  0  0  0  0
   -5.8261    5.3764  -16.2422 C   0  0  0  0  0  0  0  0  0  0  0  0
   -7.0865    5.2091  -15.6795 C   0  0  0  0  0  0  0  0  0  0  0  0
   -7.3349    5.7356  -14.3478 C   0  0  0  0  0  0  0  0  0  0  0  0
   -7.2737    6.8854  -14.1759 O   0  0  0  0  0  0  0  0  0  0  0  0
   -7.6867    4.6023  -13.3769 N   0  0  0  0  0  0  0  0  0  0  0  0
   -7.9359    4.6291  -12.0210 C   0  0  0  0  0  0  0  0  0  0  0  0
   -7.9920    5.8692  -11.3526 C   0  0  0  0  0  0  0  0  0  0  0  0
   -8.2101    5.9272   -9.9880 C   0  0  0  0  0  0  0  0  0  0  0  0
   -8.3463    4.7217   -9.3459 C   0  0  0  0  0  0  0  0  0  0  0  0
   -8.2847    3.4876   -9.9852 C   0  0  0  0  0  0  0  0  0  0  0  0
   -8.0988    3.4200  -11.3455 C   0  0  0  0  0  0  0  0  0  0  0  0
   -8.4678    2.3966   -8.9968 C   0  0  0  0  0  0  0  0  0  0  0  0
   -8.5674    3.1442   -7.7445 N   0  0  0  0  0  0  0  0  0  0  0  0
   -8.8572    2.4546   -6.5038 C   0  0  1  0  0  0  0  0  0  0  0  0
   -8.7116    3.3202   -5.2400 C   0  0  0  0  0  0  0  0  0  0  0  0
  -10.0454    3.7236   -4.6518 C   0  0  1  0  0  0  0  0  0  0  0  0
  -10.5372    4.8058   -5.3082 F   0  0  0  0  0  0  0  0  0  0  0  0
  -11.0344    2.5820   -4.7765 C   0  0  0  0  0  0  0  0  0  0  0  0
  -11.2702    2.2159   -6.1217 N   0  0  0  0  0  0  0  0  0  0  0  0
  -10.1621    1.6869   -6.7087 C   0  0  0  0  0  0  0  0  0  0  0  0
  -10.2503    0.6907   -7.4168 O   0  0  0  0  0  0  0  0  0  0  0  0
   -8.5613    4.5064   -7.9313 C   0  0  0  0  0  0  0  0  0  0  0  0
   -8.6628    5.4314   -7.1491 O   0  0  0  0  0  0  0  0  0  0  0  0
   -8.1213    4.6630  -16.4295 C   0  0  0  0  0  0  0  0  0  0  0  0
   -7.8665    4.3640  -17.7602 C   0  0  0  0  0  0  0  0  0  0  0  0
   -8.9964    3.8586  -18.6084 C   0  0  0  0  0  0  0  0  0  0  0  0
   -6.6658    4.5381  -18.3691 N   0  0  0  0  0  0  0  0  0  0  0  0
   -5.6991    5.0262  -17.5702 C   0  0  0  0  0  0  0  0  0  0  0  0
  1  2  1  0
  2  3  1  0
  3  4  1  0
  4  5  2  0
  5  6  1  0
  6  7  2  0
  7  8  1  0
  8  9  2  0
  8 10  1  0
 10 11  1  0
 11 12  2  0
 12 13  1  0
 13 14  2  0
 14 15  1  0
 15 16  2  0
 15 17  1  0
 17 18  1  0
 19 18  1  6
 19 20  1  0
 20 21  1  0
 21 22  1  6
 21 23  1  0
 23 24  1  0
 24 25  1  0
 25 26  2  0
 18 27  1  0
 27 28  2  0
  7 29  1  0
 29 30  2  0
 30 31  1  0
 30 32  1  0
 32 33  2  0
 33  3  1  0
 33  6  1  0
 16 11  1  0
 25 19  1  0
 27 14  1  0
M  END
>  <name>  (435) 
P116584

>  <alias>  (435) 
None

>  <smina_score_min>  (435) 
-9.274

>  <exports>  (435) 
['/opt/xchem-fragalysis-2/maxwin/BulkDock/OUTPUTS/openbind_xx01zvns2b_c2_elabs_1LOUTNY.sdf', '/opt/xchem-fragalysis-2/maxwin/BulkDock/OUTPUTS/openbind_xx01zvns2b_c2_elabs_1LSYIIV.sdf']

>  <tags>  (435) 
syndirella_placed,openbind_xx01zvns2b_c2_elabs,openbind_xx01zvns2b_c2_elabs_scored_6.2plus,syndirella_product,openbind_xx01zvns2b_c2_elabs_scored,openbind_xx01zvns2b_c2_elabs_scored_top80percent,BulkDock Fragalysis export

>  <subsites>  (435) 
1 - Z4590/B/203/1

>  <smiles>  (435) 
CCn1ncc2c(C(=O)Nc3ccc4c(c3)CN([C@H]3C[C@@H](F)CNC3=O)C4=O)cc(C)nc21

>  <HIPPO Pose ID>  (435) 
116584

>  <energy_score>  (435) 
-34.393838

>  <inchikey>  (435) 
HIRBKNUZRHVQBE-KUHUBIRLSA-N

>  <gnina_score_min>  (435) 
6.3

>  <gnina_score>  (435) 
6.161

>  <ref_mols>  (435) 
Z3556a

>  <HIPPO Compound ID>  (435) 
179999

>  <distance_score>  (435) 
0.858626

>  <rmsd(smina/fragmenstein)>  (435) 
0.986

>  <ref_pdb>  (435) 
Z3556a

>  <inspiration_score>  (435) 
None

$$$$
P116585
     RDKit          3D

 33 37  0  0  0  0  0  0  0  0999 V2000
  -11.7211    2.1278   -5.5537 C   0  0  0  0  0  0  0  0  0  0  0  0
  -10.3314    2.6464   -5.2766 C   0  0  0  0  0  0  0  0  0  0  0  0
   -9.3508    2.1598   -6.3444 C   0  0  0  0  0  0  0  0  0  0  0  0
   -9.4774    2.9651   -7.5475 N   0  0  0  0  0  0  0  0  0  0  0  0
   -8.8594    4.2893   -7.3544 C   0  0  0  0  0  0  0  0  0  0  0  0
   -8.2982    4.6348   -8.6834 C   0  0  0  0  0  0  0  0  0  0  0  0
   -7.7977    5.8472   -9.1006 C   0  0  0  0  0  0  0  0  0  0  0  0
   -7.2029    5.8953  -10.3529 C   0  0  0  0  0  0  0  0  0  0  0  0
   -7.1363    4.7506  -11.1635 C   0  0  0  0  0  0  0  0  0  0  0  0
   -6.4774    4.8174  -12.3824 N   0  0  0  0  0  0  0  0  0  0  0  0
   -5.6506    5.9610  -13.0161 C   0  0  0  0  0  0  0  0  0  0  0  0
   -5.3308    6.9955  -12.5794 O   0  0  0  0  0  0  0  0  0  0  0  0
   -5.3348    5.6688  -14.4130 C   0  0  0  0  0  0  0  0  0  0  0  0
   -6.3773    5.3911  -15.2897 C   0  0  0  0  0  0  0  0  0  0  0  0
   -6.0449    5.2354  -16.6204 C   0  0  0  0  0  0  0  0  0  0  0  0
   -6.9909    4.8774  -17.6042 C   0  0  0  0  0  0  0  0  0  0  0  0
   -6.6715    4.5182  -18.9286 C   0  0  0  0  0  0  0  0  0  0  0  0
   -7.8464    4.0484  -19.4053 C   0  0  0  0  0  0  0  0  0  0  0  0
   -8.7707    4.3241  -18.4515 N   0  0  0  0  0  0  0  0  0  0  0  0
  -10.0644    3.7226  -18.3883 C   0  0  0  0  0  0  0  0  0  0  0  0
   -9.7726    2.2557  -18.2053 C   0  0  0  0  0  0  0  0  0  0  0  0
   -8.2778    4.7828  -17.3135 N   0  0  0  0  0  0  0  0  0  0  0  0
   -4.8297    5.3354  -17.1643 N   0  0  0  0  0  0  0  0  0  0  0  0
   -3.8894    5.5786  -16.2758 C   0  0  0  0  0  0  0  0  0  0  0  0
   -4.0323    5.7594  -14.9190 C   0  0  0  0  0  0  0  0  0  0  0  0
   -2.7047    6.0004  -14.4903 C   0  0  0  0  0  0  0  0  0  0  0  0
   -2.2286    6.2801  -13.1119 C   0  0  0  0  0  0  0  0  0  0  0  0
   -1.8201    5.9558  -15.5086 N   0  0  0  0  0  0  0  0  0  0  0  0
   -2.5836    5.7002  -16.5848 N   0  0  0  0  0  0  0  0  0  0  0  0
   -2.0536    5.5727  -17.9213 C   0  0  0  0  0  0  0  0  0  0  0  0
   -7.7075    3.5408  -10.7542 C   0  0  0  0  0  0  0  0  0  0  0  0
   -8.2654    3.4978   -9.4903 C   0  0  0  0  0  0  0  0  0  0  0  0
   -8.8274    2.3410   -8.7253 C   0  0  0  0  0  0  0  0  0  0  0  0
  1  2  1  0
  2  3  1  0
  3  4  1  0
  4  5  1  0
  5  6  1  0
  6  7  2  0
  7  8  1  0
  8  9  2  0
  9 10  1  0
 10 11  1  0
 11 12  2  0
 11 13  1  0
 13 14  2  0
 14 15  1  0
 15 16  1  0
 16 17  1  0
 17 18  2  0
 18 19  1  0
 19 20  1  0
 20 21  1  0
 19 22  1  0
 15 23  2  0
 23 24  1  0
 24 25  2  0
 25 26  1  0
 26 27  1  0
 26 28  2  0
 28 29  1  0
 29 30  1  0
  9 31  1  0
 31 32  2  0
 32 33  1  0
 33  4  1  0
 32  6  1  0
 25 13  1  0
 22 16  2  0
 29 24  1  0
M  END
>  <name>  (436) 
P116585

>  <alias>  (436) 
None

>  <smina_score_min>  (436) 
-6.215

>  <exports>  (436) 
['/opt/xchem-fragalysis-2/maxwin/BulkDock/OUTPUTS/openbind_xx01zvns2b_c2_elabs_1LOUTNY.sdf', '/opt/xchem-fragalysis-2/maxwin/BulkDock/OUTPUTS/openbind_xx01zvns2b_c2_elabs_1LSYIIV.sdf']

>  <tags>  (436) 
syndirella_placed,openbind_xx01zvns2b_c2_elabs,openbind_xx01zvns2b_c2_elabs_scored_6.2plus,syndirella_product,openbind_xx01zvns2b_c2_elabs_scored,openbind_xx01zvns2b_c2_elabs_scored_top80percent,BulkDock Fragalysis export

>  <subsites>  (436) 
1 - Z4590/B/203/1

>  <smiles>  (436) 
CCCN1Cc2ccc(NC(=O)c3cc(-c4ccn(CC)n4)nc4c3c(C)nn4C)cc2C1

>  <HIPPO Pose ID>  (436) 
116585

>  <energy_score>  (436) 
-31.85323

>  <inchikey>  (436) 
AEGBYWCLAXUCAJ-UHFFFAOYSA-N

>  <gnina_score_min>  (436) 
6.323

>  <gnina_score>  (436) 
5.988

>  <ref_mols>  (436) 
Z3556a

>  <HIPPO Compound ID>  (436) 
180002

>  <distance_score>  (436) 
1.889536

>  <rmsd(smina/fragmenstein)>  (436) 
0.673

>  <ref_pdb>  (436) 
Z3556a

>  <inspiration_score>  (436) 
None

$$$$
P116590
     RDKit          3D

 33 37  0  0  0  0  0  0  0  0999 V2000
   -6.8640    3.8116   -3.9281 C   0  0  0  0  0  0  0  0  0  0  0  0
   -7.3880    4.3299   -5.2408 C   0  0  0  0  0  0  0  0  0  0  0  0
   -8.5211    3.4704   -5.8387 C   0  0  0  0  0  0  0  0  0  0  0  0
   -9.0372    3.8806   -7.1495 N   0  0  0  0  0  0  0  0  0  0  0  0
   -8.7046    5.2578   -7.5270 C   0  0  0  0  0  0  0  0  0  0  0  0
   -7.9714    5.1738   -8.8094 C   0  0  0  0  0  0  0  0  0  0  0  0
   -7.3553    6.2174   -9.4627 C   0  0  0  0  0  0  0  0  0  0  0  0
   -6.6515    5.9298  -10.6202 C   0  0  0  0  0  0  0  0  0  0  0  0
   -6.6016    4.6243  -11.1336 C   0  0  0  0  0  0  0  0  0  0  0  0
   -6.0478    4.4545  -12.4041 N   0  0  0  0  0  0  0  0  0  0  0  0
   -5.1838    5.4243  -13.2708 C   0  0  0  0  0  0  0  0  0  0  0  0
   -4.7425    6.4794  -13.0172 O   0  0  0  0  0  0  0  0  0  0  0  0
   -4.9862    4.9539  -14.6683 C   0  0  0  0  0  0  0  0  0  0  0  0
   -6.0798    4.3774  -15.2910 C   0  0  0  0  0  0  0  0  0  0  0  0
   -6.2922    4.5296  -16.6507 C   0  0  0  0  0  0  0  0  0  0  0  0
   -7.5991    4.3145  -17.1893 C   0  0  0  0  0  0  0  0  0  0  0  0
   -8.0135    4.0512  -18.4736 C   0  0  0  0  0  0  0  0  0  0  0  0
   -9.3972    3.9768  -18.3717 C   0  0  0  0  0  0  0  0  0  0  0  0
   -9.8219    4.1284  -17.1207 N   0  0  0  0  0  0  0  0  0  0  0  0
   -8.7373    4.5215  -16.4481 N   0  0  0  0  0  0  0  0  0  0  0  0
   -8.8578    5.3956  -15.2836 C   0  0  0  0  0  0  0  0  0  0  0  0
   -9.0575    4.7624  -13.9189 C   0  0  0  0  0  0  0  0  0  0  0  0
   -5.3955    4.9929  -17.5158 N   0  0  0  0  0  0  0  0  0  0  0  0
   -4.2686    5.3708  -16.9018 C   0  0  0  0  0  0  0  0  0  0  0  0
   -4.0043    5.4360  -15.5370 C   0  0  0  0  0  0  0  0  0  0  0  0
   -2.7343    6.0590  -15.4730 C   0  0  0  0  0  0  0  0  0  0  0  0
   -1.9528    6.4365  -14.2683 C   0  0  0  0  0  0  0  0  0  0  0  0
   -2.2082    6.2623  -16.6938 N   0  0  0  0  0  0  0  0  0  0  0  0
   -3.1526    5.8036  -17.5343 N   0  0  0  0  0  0  0  0  0  0  0  0
   -2.9535    5.7724  -18.9600 C   0  0  0  0  0  0  0  0  0  0  0  0
   -7.2693    3.5752  -10.4705 C   0  0  0  0  0  0  0  0  0  0  0  0
   -7.9267    3.8666   -9.2769 C   0  0  0  0  0  0  0  0  0  0  0  0
   -8.6654    2.9939   -8.3014 C   0  0  0  0  0  0  0  0  0  0  0  0
  1  2  1  0
  2  3  1  0
  3  4  1  0
  4  5  1  0
  5  6  1  0
  6  7  2  0
  7  8  1  0
  8  9  2  0
  9 10  1  0
 10 11  1  0
 11 12  2  0
 11 13  1  0
 13 14  2  0
 14 15  1  0
 15 16  1  0
 16 17  2  0
 17 18  1  0
 18 19  2  0
 19 20  1  0
 20 21  1  0
 21 22  1  0
 15 23  2  0
 23 24  1  0
 24 25  2  0
 25 26  1  0
 26 27  1  0
 26 28  2  0
 28 29  1  0
 29 30  1  0
  9 31  1  0
 31 32  2  0
 32 33  1  0
 33  4  1  0
 32  6  1  0
 25 13  1  0
 20 16  1  0
 29 24  1  0
M  END
>  <name>  (437) 
P116590

>  <alias>  (437) 
None

>  <smina_score_min>  (437) 
-6.136

>  <exports>  (437) 
['/opt/xchem-fragalysis-2/maxwin/BulkDock/OUTPUTS/openbind_xx01zvns2b_c2_elabs_1LOUTNY.sdf', '/opt/xchem-fragalysis-2/maxwin/BulkDock/OUTPUTS/openbind_xx01zvns2b_c2_elabs_1LSYIIV.sdf']

>  <tags>  (437) 
syndirella_placed,openbind_xx01zvns2b_c2_elabs,openbind_xx01zvns2b_c2_elabs_scored_6.2plus,syndirella_product,openbind_xx01zvns2b_c2_elabs_scored,openbind_xx01zvns2b_c2_elabs_scored_top80percent,BulkDock Fragalysis export

>  <subsites>  (437) 
1 - Z4590/B/203/1

>  <smiles>  (437) 
CCCN1Cc2ccc(NC(=O)c3cc(-c4ccnn4CC)nc4c3c(C)nn4C)cc2C1

>  <HIPPO Pose ID>  (437) 
116590

>  <energy_score>  (437) 
-10.431487

>  <inchikey>  (437) 
VAQNMZGWABVFAO-UHFFFAOYSA-N

>  <gnina_score_min>  (437) 
6.225

>  <gnina_score>  (437) 
6.337

>  <ref_mols>  (437) 
Z3556a

>  <HIPPO Compound ID>  (437) 
180012

>  <distance_score>  (437) 
1.851051

>  <rmsd(smina/fragmenstein)>  (437) 
1.032

>  <ref_pdb>  (437) 
Z3556a

>  <inspiration_score>  (437) 
None

$$$$
P116592
     RDKit          3D

 33 37  0  0  0  0  0  0  0  0999 V2000
   -6.1898    5.8024  -19.7325 C   0  0  0  0  0  0  0  0  0  0  0  0
   -6.7296    4.3816  -19.5470 C   0  0  0  0  0  0  0  0  0  0  0  0
   -7.8969    4.2504  -18.6890 N   0  0  0  0  0  0  0  0  0  0  0  0
   -9.0845    3.9520  -19.2411 N   0  0  0  0  0  0  0  0  0  0  0  0
   -9.9301    3.9059  -18.2200 C   0  0  0  0  0  0  0  0  0  0  0  0
   -9.2719    4.0044  -17.0026 C   0  0  0  0  0  0  0  0  0  0  0  0
   -7.9769    4.3260  -17.3207 C   0  0  0  0  0  0  0  0  0  0  0  0
   -6.9102    4.7188  -16.4469 C   0  0  0  0  0  0  0  0  0  0  0  0
   -7.1359    5.0638  -15.1297 C   0  0  0  0  0  0  0  0  0  0  0  0
   -6.0520    5.5170  -14.3774 C   0  0  0  0  0  0  0  0  0  0  0  0
   -6.2888    5.9764  -13.0072 C   0  0  0  0  0  0  0  0  0  0  0  0
   -5.9889    7.0656  -12.7156 O   0  0  0  0  0  0  0  0  0  0  0  0
   -7.0008    4.8793  -12.1846 N   0  0  0  0  0  0  0  0  0  0  0  0
   -7.5549    4.9231  -10.9144 C   0  0  0  0  0  0  0  0  0  0  0  0
   -7.4988    6.1002  -10.1546 C   0  0  0  0  0  0  0  0  0  0  0  0
   -7.9348    6.1191   -8.8314 C   0  0  0  0  0  0  0  0  0  0  0  0
   -8.4178    4.9452   -8.2898 C   0  0  0  0  0  0  0  0  0  0  0  0
   -8.5388    3.7917   -9.0761 C   0  0  0  0  0  0  0  0  0  0  0  0
   -8.1207    3.7593  -10.3935 C   0  0  0  0  0  0  0  0  0  0  0  0
   -9.0695    2.6780   -8.2396 C   0  0  0  0  0  0  0  0  0  0  0  0
   -9.5356    3.3565   -7.0075 N   0  0  0  0  0  0  0  0  0  0  0  0
   -9.5073    2.4511   -5.8857 C   0  0  0  0  0  0  0  0  0  0  0  0
   -8.7551    4.6110   -6.8538 C   0  0  0  0  0  0  0  0  0  0  0  0
   -9.5968    5.6628   -6.1130 C   0  0  0  0  0  0  0  0  0  0  0  0
   -7.4157    4.5119   -6.0892 C   0  0  0  0  0  0  0  0  0  0  0  0
   -4.7956    5.6197  -14.9840 C   0  0  0  0  0  0  0  0  0  0  0  0
   -3.4699    6.0198  -14.6831 C   0  0  0  0  0  0  0  0  0  0  0  0
   -2.9374    6.5280  -13.3931 C   0  0  0  0  0  0  0  0  0  0  0  0
   -2.6522    5.9104  -15.7472 N   0  0  0  0  0  0  0  0  0  0  0  0
   -3.4521    5.4368  -16.7198 N   0  0  0  0  0  0  0  0  0  0  0  0
   -2.9492    5.2470  -18.0575 C   0  0  0  0  0  0  0  0  0  0  0  0
   -4.7290    5.2355  -16.3054 C   0  0  0  0  0  0  0  0  0  0  0  0
   -5.7255    4.7801  -17.0555 N   0  0  0  0  0  0  0  0  0  0  0  0
  1  2  1  0
  2  3  1  0
  3  4  1  0
  4  5  2  0
  5  6  1  0
  6  7  2  0
  7  8  1  0
  8  9  2  0
  9 10  1  0
 10 11  1  0
 11 12  2  0
 11 13  1  0
 13 14  1  0
 14 15  2  0
 15 16  1  0
 16 17  2  0
 17 18  1  0
 18 19  2  0
 18 20  1  0
 20 21  1  0
 21 22  1  0
 21 23  1  0
 23 24  1  0
 23 25  1  0
 10 26  2  0
 26 27  1  0
 27 28  1  0
 27 29  2  0
 29 30  1  0
 30 31  1  0
 30 32  1  0
 32 33  2  0
  7  3  1  0
 33  8  1  0
 19 14  1  0
 32 26  1  0
 23 17  1  0
M  END
>  <name>  (438) 
P116592

>  <alias>  (438) 
None

>  <smina_score_min>  (438) 
-6.913

>  <exports>  (438) 
['/opt/xchem-fragalysis-2/maxwin/BulkDock/OUTPUTS/openbind_xx01zvns2b_c2_elabs_1LOUTNY.sdf', '/opt/xchem-fragalysis-2/maxwin/BulkDock/OUTPUTS/openbind_xx01zvns2b_c2_elabs_1LSYIIV.sdf']

>  <tags>  (438) 
syndirella_placed,openbind_xx01zvns2b_c2_elabs,openbind_xx01zvns2b_c2_elabs_scored_6.2plus,syndirella_product,openbind_xx01zvns2b_c2_elabs_scored,openbind_xx01zvns2b_c2_elabs_scored_top80percent,BulkDock Fragalysis export

>  <subsites>  (438) 
1 - Z4590/B/203/1

>  <smiles>  (438) 
CCn1nccc1-c1cc(C(=O)Nc2ccc3c(c2)CN(C)C3(C)C)c2c(C)nn(C)c2n1

>  <HIPPO Pose ID>  (438) 
116592

>  <energy_score>  (438) 
-66.450532

>  <inchikey>  (438) 
QCQKWFNCPFXNLC-UHFFFAOYSA-N

>  <gnina_score_min>  (438) 
6.224

>  <gnina_score>  (438) 
6.28

>  <ref_mols>  (438) 
Z3556a

>  <HIPPO Compound ID>  (438) 
180014

>  <distance_score>  (438) 
1.398504

>  <rmsd(smina/fragmenstein)>  (438) 
1.164

>  <ref_pdb>  (438) 
Z3556a

>  <inspiration_score>  (438) 
None

$$$$
P116595
     RDKit          3D

 33 38  0  0  0  0  0  0  0  0999 V2000
   -9.9831    3.6660   -4.5295 C   0  0  0  0  0  0  0  0  0  0  0  0
  -10.6708    2.4899   -5.2045 C   0  0  0  0  0  0  0  0  0  0  0  0
  -10.3626    2.2384   -6.6833 C   0  0  0  0  0  0  0  0  0  0  0  0
   -9.0074    2.5052   -7.1486 N   0  0  0  0  0  0  0  0  0  0  0  0
   -8.6780    3.9409   -7.2250 C   0  0  0  0  0  0  0  0  0  0  0  0
   -8.3485    4.2380   -8.6412 C   0  0  0  0  0  0  0  0  0  0  0  0
   -8.0153    5.4552   -9.1998 C   0  0  0  0  0  0  0  0  0  0  0  0
   -7.7474    5.4872  -10.5619 C   0  0  0  0  0  0  0  0  0  0  0  0
   -7.8291    4.3169  -11.3333 C   0  0  0  0  0  0  0  0  0  0  0  0
   -7.5533    4.3722  -12.6902 N   0  0  0  0  0  0  0  0  0  0  0  0
   -6.8791    5.4745  -13.5308 C   0  0  0  0  0  0  0  0  0  0  0  0
   -6.5186    6.5420  -13.2288 O   0  0  0  0  0  0  0  0  0  0  0  0
   -6.7949    5.0869  -14.9391 C   0  0  0  0  0  0  0  0  0  0  0  0
   -7.9448    4.7012  -15.6248 C   0  0  0  0  0  0  0  0  0  0  0  0
   -7.8991    4.5501  -17.0069 C   0  0  0  0  0  0  0  0  0  0  0  0
   -9.1895    4.3374  -17.7358 C   0  0  0  0  0  0  0  0  0  0  0  0
   -9.1583    4.0587  -19.2052 C   0  0  0  0  0  0  0  0  0  0  0  0
   -9.6427    3.0217  -18.2542 C   0  0  0  0  0  0  0  0  0  0  0  0
   -6.7625    4.7203  -17.7286 N   0  0  0  0  0  0  0  0  0  0  0  0
   -5.6766    5.0526  -17.0130 C   0  0  0  0  0  0  0  0  0  0  0  0
   -5.6104    5.2566  -15.6496 C   0  0  0  0  0  0  0  0  0  0  0  0
   -4.2706    5.6132  -15.4042 C   0  0  0  0  0  0  0  0  0  0  0  0
   -3.5204    5.5987  -16.5126 N   0  0  0  0  0  0  0  0  0  0  0  0
   -4.4154    5.2892  -17.4873 N   0  0  0  0  0  0  0  0  0  0  0  0
   -4.0025    5.2122  -18.8770 C   0  0  0  0  0  0  0  0  0  0  0  0
   -4.0377    6.5664  -19.5219 C   0  0  0  0  0  0  0  0  0  0  0  0
   -2.9275    7.4732  -19.5769 C   0  0  0  0  0  0  0  0  0  0  0  0
   -3.2333    8.6467  -20.2288 C   0  0  0  0  0  0  0  0  0  0  0  0
   -4.8497    8.6696  -20.7798 S   0  0  0  0  0  0  0  0  0  0  0  0
   -5.1472    7.1109  -20.1444 C   0  0  0  0  0  0  0  0  0  0  0  0
   -8.1913    3.0979  -10.7571 C   0  0  0  0  0  0  0  0  0  0  0  0
   -8.4350    3.0777   -9.3966 C   0  0  0  0  0  0  0  0  0  0  0  0
   -8.7809    1.9294   -8.5053 C   0  0  0  0  0  0  0  0  0  0  0  0
  1  2  1  0
  2  3  1  0
  3  4  1  0
  4  5  1  0
  5  6  1  0
  6  7  2  0
  7  8  1  0
  8  9  2  0
  9 10  1  0
 10 11  1  0
 11 12  2  0
 11 13  1  0
 13 14  2  0
 14 15  1  0
 15 16  1  0
 16 17  1  0
 17 18  1  0
 15 19  2  0
 19 20  1  0
 20 21  2  0
 21 22  1  0
 22 23  2  0
 23 24  1  0
 24 25  1  0
 25 26  1  0
 26 27  1  0
 27 28  2  0
 28 29  1  0
 29 30  1  0
  9 31  1  0
 31 32  2  0
 32 33  1  0
 33  4  1  0
 32  6  1  0
 21 13  1  0
 30 26  2  0
 18 16  1  0
 24 20  1  0
M  END
>  <name>  (439) 
P116595

>  <alias>  (439) 
None

>  <smina_score_min>  (439) 
-7.382

>  <exports>  (439) 
['/opt/xchem-fragalysis-2/maxwin/BulkDock/OUTPUTS/openbind_xx01zvns2b_c2_elabs_1LOUTNY.sdf', '/opt/xchem-fragalysis-2/maxwin/BulkDock/OUTPUTS/openbind_xx01zvns2b_c2_elabs_1LSYIIV.sdf']

>  <tags>  (439) 
syndirella_placed,openbind_xx01zvns2b_c2_elabs,openbind_xx01zvns2b_c2_elabs_scored_6.2plus,syndirella_product,openbind_xx01zvns2b_c2_elabs_scored,openbind_xx01zvns2b_c2_elabs_scored_top80percent,BulkDock Fragalysis export

>  <subsites>  (439) 
1 - Z4590/B/203/1

>  <smiles>  (439) 
CCCN1Cc2ccc(NC(=O)c3cc(C4CC4)nc4c3cnn4Cc3ccsc3)cc2C1

>  <HIPPO Pose ID>  (439) 
116595

>  <energy_score>  (439) 
-65.718126

>  <inchikey>  (439) 
ROVHOJIWIFFFAG-UHFFFAOYSA-N

>  <gnina_score_min>  (439) 
6.366

>  <gnina_score>  (439) 
6.247

>  <ref_mols>  (439) 
Z3556a

>  <HIPPO Compound ID>  (439) 
180020

>  <distance_score>  (439) 
0.499457

>  <rmsd(smina/fragmenstein)>  (439) 
0.643

>  <ref_pdb>  (439) 
Z3556a

>  <inspiration_score>  (439) 
None

$$$$
P116601
     RDKit          3D

 33 38  0  0  0  0  0  0  0  0999 V2000
   -6.0138    4.3917   -5.1971 O   0  0  0  0  0  0  0  0  0  0  0  0
   -7.0842    4.4127   -5.7459 C   0  0  0  0  0  0  0  0  0  0  0  0
   -7.4143    4.4280   -7.1203 N   0  0  0  0  0  0  0  0  0  0  0  0
   -7.5380    5.8798   -7.6167 C   0  0  0  0  0  0  0  0  0  0  0  0
   -7.7925    5.9828   -9.0717 C   0  0  0  0  0  0  0  0  0  0  0  0
   -8.4058    6.8869   -9.9087 C   0  0  0  0  0  0  0  0  0  0  0  0
   -8.2473    6.6952  -11.2907 C   0  0  0  0  0  0  0  0  0  0  0  0
   -8.9967    7.9939  -12.4563 Br  0  0  0  0  0  0  0  0  0  0  0  0
   -7.4699    5.6273  -11.7953 C   0  0  0  0  0  0  0  0  0  0  0  0
   -7.2062    5.4997  -13.1610 N   0  0  0  0  0  0  0  0  0  0  0  0
   -6.1857    4.7718  -13.8574 C   0  0  0  0  0  0  0  0  0  0  0  0
   -5.3441    4.0227  -13.4533 O   0  0  0  0  0  0  0  0  0  0  0  0
   -6.1964    5.0033  -15.3107 C   0  0  0  0  0  0  0  0  0  0  0  0
   -7.2983    4.6630  -16.1024 C   0  0  0  0  0  0  0  0  0  0  0  0
   -7.2018    4.7362  -17.4986 C   0  0  0  0  0  0  0  0  0  0  0  0
   -8.2559    4.1732  -18.4278 C   0  0  0  0  0  0  0  0  0  0  0  0
   -9.7309    4.4181  -18.2728 C   0  0  0  0  0  0  0  0  0  0  0  0
   -9.1751    3.0666  -17.9884 C   0  0  0  0  0  0  0  0  0  0  0  0
   -6.1029    5.2345  -18.1186 N   0  0  0  0  0  0  0  0  0  0  0  0
   -5.0674    5.5283  -17.3179 C   0  0  0  0  0  0  0  0  0  0  0  0
   -5.0309    5.4370  -15.9416 C   0  0  0  0  0  0  0  0  0  0  0  0
   -3.7233    5.8278  -15.5939 C   0  0  0  0  0  0  0  0  0  0  0  0
   -2.9924    6.1883  -16.6548 N   0  0  0  0  0  0  0  0  0  0  0  0
   -3.8209    5.9487  -17.7021 N   0  0  0  0  0  0  0  0  0  0  0  0
   -3.3867    6.1977  -19.0732 C   0  0  0  0  0  0  0  0  0  0  0  0
   -2.0760    5.4625  -19.4157 C   0  0  0  0  0  0  0  0  0  0  0  0
   -1.3889    6.1043  -20.6155 C   0  0  0  0  0  0  0  0  0  0  0  0
   -0.9992    7.5574  -20.3393 C   0  0  0  0  0  0  0  0  0  0  0  0
   -1.9112    8.2560  -19.3300 C   0  0  0  0  0  0  0  0  0  0  0  0
   -3.3335    7.7093  -19.3749 C   0  0  0  0  0  0  0  0  0  0  0  0
   -6.8985    4.7172  -10.9070 C   0  0  0  0  0  0  0  0  0  0  0  0
   -7.0881    4.9326   -9.5621 C   0  0  0  0  0  0  0  0  0  0  0  0
   -6.5322    4.3077   -8.3552 C   0  0  0  0  0  0  0  0  0  0  0  0
  1  2  2  0
  2  3  1  0
  3  4  1  0
  4  5  1  0
  5  6  2  0
  6  7  1  0
  7  8  1  0
  7  9  2  0
  9 10  1  0
 10 11  1  0
 11 12  2  0
 11 13  1  0
 13 14  2  0
 14 15  1  0
 15 16  1  0
 16 17  1  0
 17 18  1  0
 15 19  2  0
 19 20  1  0
 20 21  2  0
 21 22  1  0
 22 23  2  0
 23 24  1  0
 24 25  1  0
 25 26  1  0
 26 27  1  0
 27 28  1  0
 28 29  1  0
 29 30  1  0
  9 31  1  0
 31 32  2  0
 32 33  1  0
 33  3  1  0
 32  5  1  0
 21 13  1  0
 30 25  1  0
 18 16  1  0
 24 20  1  0
M  END
>  <name>  (440) 
P116601

>  <alias>  (440) 
None

>  <smina_score_min>  (440) 
-8.105

>  <exports>  (440) 
['/opt/xchem-fragalysis-2/maxwin/BulkDock/OUTPUTS/openbind_xx01zvns2b_c2_elabs_1LOUTNY.sdf', '/opt/xchem-fragalysis-2/maxwin/BulkDock/OUTPUTS/openbind_xx01zvns2b_c2_elabs_1LSYIIV.sdf']

>  <tags>  (440) 
syndirella_placed,openbind_xx01zvns2b_c2_elabs,openbind_xx01zvns2b_c2_elabs_scored_6.2plus,syndirella_product,openbind_xx01zvns2b_c2_elabs_scored,openbind_xx01zvns2b_c2_elabs_scored_top80percent,BulkDock Fragalysis export

>  <subsites>  (440) 
1 - Z4590/B/203/1

>  <smiles>  (440) 
O=CN1Cc2cc(Br)c(NC(=O)c3cc(C4CC4)nc4c3cnn4C3CCCCC3)cc2C1

>  <HIPPO Pose ID>  (440) 
116601

>  <energy_score>  (440) 
-1.336967

>  <inchikey>  (440) 
FEVCVPAKYFCFCZ-UHFFFAOYSA-N

>  <gnina_score_min>  (440) 
6.573

>  <gnina_score>  (440) 
6.5

>  <ref_mols>  (440) 
Z3556a

>  <HIPPO Compound ID>  (440) 
180027

>  <distance_score>  (440) 
1.822805

>  <rmsd(smina/fragmenstein)>  (440) 
0.91

>  <ref_pdb>  (440) 
Z3556a

>  <inspiration_score>  (440) 
None

$$$$
P116605
     RDKit          3D

 33 37  0  0  0  0  0  0  0  0999 V2000
   -9.3126    3.8967  -18.1015 C   0  0  0  0  0  0  0  0  0  0  0  0
   -8.1430    4.3407  -17.2707 C   0  0  0  0  0  0  0  0  0  0  0  0
   -8.2759    4.5072  -15.8959 C   0  0  0  0  0  0  0  0  0  0  0  0
   -7.1751    4.9574  -15.1640 C   0  0  0  0  0  0  0  0  0  0  0  0
   -7.3282    5.4173  -13.7719 C   0  0  0  0  0  0  0  0  0  0  0  0
   -7.1267    6.5520  -13.5770 O   0  0  0  0  0  0  0  0  0  0  0  0
   -7.7818    4.2982  -12.8036 N   0  0  0  0  0  0  0  0  0  0  0  0
   -7.9835    4.3211  -11.4206 C   0  0  0  0  0  0  0  0  0  0  0  0
   -7.7706    5.5215  -10.7046 C   0  0  0  0  0  0  0  0  0  0  0  0
   -7.9804    5.5987   -9.3246 C   0  0  0  0  0  0  0  0  0  0  0  0
   -8.4025    4.4525   -8.6901 C   0  0  0  0  0  0  0  0  0  0  0  0
   -8.6144    3.2726   -9.3782 C   0  0  0  0  0  0  0  0  0  0  0  0
   -8.4095    3.1694  -10.7478 C   0  0  0  0  0  0  0  0  0  0  0  0
   -9.1593    2.3190   -8.4126 C   0  0  0  0  0  0  0  0  0  0  0  0
   -9.5612    1.2127   -8.6986 O   0  0  0  0  0  0  0  0  0  0  0  0
   -9.2192    2.9590   -7.2073 N   0  0  0  0  0  0  0  0  0  0  0  0
   -9.8801    2.4053   -6.0554 C   0  0  0  0  0  0  0  0  0  0  0  0
   -8.7985    4.2500   -7.2981 C   0  0  0  0  0  0  0  0  0  0  0  0
   -8.7925    5.1298   -6.4561 O   0  0  0  0  0  0  0  0  0  0  0  0
   -5.9543    5.1574  -15.8296 C   0  0  0  0  0  0  0  0  0  0  0  0
   -4.6243    5.5260  -15.5135 C   0  0  0  0  0  0  0  0  0  0  0  0
   -4.0513    5.8449  -14.1810 C   0  0  0  0  0  0  0  0  0  0  0  0
   -3.8322    5.5347  -16.5928 N   0  0  0  0  0  0  0  0  0  0  0  0
   -4.6593    5.2363  -17.6382 N   0  0  0  0  0  0  0  0  0  0  0  0
   -4.1539    5.2433  -18.9735 C   0  0  0  0  0  0  0  0  0  0  0  0
   -5.0152    5.2326  -20.0817 C   0  0  0  0  0  0  0  0  0  0  0  0
   -4.4962    5.2226  -21.3784 C   0  0  0  0  0  0  0  0  0  0  0  0
   -3.1210    5.2050  -21.5695 C   0  0  0  0  0  0  0  0  0  0  0  0
   -2.6326    5.1599  -22.8163 F   0  0  0  0  0  0  0  0  0  0  0  0
   -2.2517    5.2274  -20.4864 C   0  0  0  0  0  0  0  0  0  0  0  0
   -2.7648    5.2600  -19.1863 C   0  0  0  0  0  0  0  0  0  0  0  0
   -5.9493    4.9631  -17.2018 C   0  0  0  0  0  0  0  0  0  0  0  0
   -7.0016    4.5699  -17.9476 N   0  0  0  0  0  0  0  0  0  0  0  0
  1  2  1  0
  2  3  2  0
  3  4  1  0
  4  5  1  0
  5  6  2  0
  5  7  1  0
  7  8  1  0
  8  9  2  0
  9 10  1  0
 10 11  2  0
 11 12  1  0
 12 13  2  0
 12 14  1  0
 14 15  2  0
 14 16  1  0
 16 17  1  0
 16 18  1  0
 18 19  2  0
  4 20  2  0
 20 21  1  0
 21 22  1  0
 21 23  2  0
 23 24  1  0
 24 25  1  0
 25 26  2  0
 26 27  1  0
 27 28  2  0
 28 29  1  0
 28 30  1  0
 30 31  2  0
 24 32  1  0
 32 33  2  0
 33  2  1  0
 13  8  1  0
 32 20  1  0
 18 11  1  0
 31 25  1  0
M  END
>  <name>  (441) 
P116605

>  <alias>  (441) 
None

>  <smina_score_min>  (441) 
-9.831

>  <exports>  (441) 
['/opt/xchem-fragalysis-2/maxwin/BulkDock/OUTPUTS/openbind_xx01zvns2b_c2_elabs_1LOUTNY.sdf', '/opt/xchem-fragalysis-2/maxwin/BulkDock/OUTPUTS/openbind_xx01zvns2b_c2_elabs_1LSYIIV.sdf']

>  <tags>  (441) 
syndirella_placed,openbind_xx01zvns2b_c2_elabs,openbind_xx01zvns2b_c2_elabs_scored_6.2plus,syndirella_product,openbind_xx01zvns2b_c2_elabs_scored,openbind_xx01zvns2b_c2_elabs_scored_top80percent,BulkDock Fragalysis export

>  <subsites>  (441) 
1 - Z4590/B/203/1

>  <smiles>  (441) 
Cc1cc(C(=O)Nc2ccc3c(c2)C(=O)N(C)C3=O)c2c(C)nn(-c3ccc(F)cc3)c2n1

>  <HIPPO Pose ID>  (441) 
116605

>  <energy_score>  (441) 
-36.559187

>  <inchikey>  (441) 
NIIOTCBNMUXKHX-UHFFFAOYSA-N

>  <gnina_score_min>  (441) 
6.402

>  <gnina_score>  (441) 
6.364

>  <ref_mols>  (441) 
Z3556a

>  <HIPPO Compound ID>  (441) 
180030

>  <distance_score>  (441) 
0.433053

>  <rmsd(smina/fragmenstein)>  (441) 
0.523

>  <ref_pdb>  (441) 
Z3556a

>  <inspiration_score>  (441) 
None

$$$$
P116606
     RDKit          3D

 33 37  0  0  0  0  0  0  0  0999 V2000
  -10.1174    2.5770   -5.8391 C   0  0  0  0  0  0  0  0  0  0  0  0
   -8.9925    3.5929   -5.8604 C   0  0  0  0  0  0  0  0  0  0  0  0
   -8.2162    3.6791   -4.9457 O   0  0  0  0  0  0  0  0  0  0  0  0
   -9.0788    4.3321   -7.0731 N   0  0  0  0  0  0  0  0  0  0  0  0
   -8.2973    5.5352   -7.5533 C   0  0  0  0  0  0  0  0  0  0  0  0
   -8.2701    5.6765   -9.0170 C   0  0  0  0  0  0  0  0  0  0  0  0
   -8.1742    6.7503   -9.8639 C   0  0  0  0  0  0  0  0  0  0  0  0
   -8.0282    6.4704  -11.2200 C   0  0  0  0  0  0  0  0  0  0  0  0
   -7.9768    5.1413  -11.6934 C   0  0  0  0  0  0  0  0  0  0  0  0
   -7.7497    4.9078  -13.0510 N   0  0  0  0  0  0  0  0  0  0  0  0
   -7.3222    5.7880  -14.0961 C   0  0  0  0  0  0  0  0  0  0  0  0
   -7.1240    6.9702  -14.0937 O   0  0  0  0  0  0  0  0  0  0  0  0
   -7.1272    5.1499  -15.4058 C   0  0  0  0  0  0  0  0  0  0  0  0
   -8.2171    4.6319  -16.1056 C   0  0  0  0  0  0  0  0  0  0  0  0
   -8.0635    4.3460  -17.4570 C   0  0  0  0  0  0  0  0  0  0  0  0
   -9.2389    3.8601  -18.2559 C   0  0  0  0  0  0  0  0  0  0  0  0
   -6.9101    4.5116  -18.1370 N   0  0  0  0  0  0  0  0  0  0  0  0
   -5.8709    4.9781  -17.4132 C   0  0  0  0  0  0  0  0  0  0  0  0
   -5.8945    5.2843  -16.0627 C   0  0  0  0  0  0  0  0  0  0  0  0
   -4.5720    5.6857  -15.7574 C   0  0  0  0  0  0  0  0  0  0  0  0
   -4.0233    6.1217  -14.4482 C   0  0  0  0  0  0  0  0  0  0  0  0
   -3.7635    5.6043  -16.8210 N   0  0  0  0  0  0  0  0  0  0  0  0
   -4.5847    5.2587  -17.8562 N   0  0  0  0  0  0  0  0  0  0  0  0
   -4.0820    5.2529  -19.1904 C   0  0  0  0  0  0  0  0  0  0  0  0
   -2.6939    5.2795  -19.4072 C   0  0  0  0  0  0  0  0  0  0  0  0
   -2.1861    5.2591  -20.7089 C   0  0  0  0  0  0  0  0  0  0  0  0
   -3.0601    5.2407  -21.7879 C   0  0  0  0  0  0  0  0  0  0  0  0
   -2.5762    5.2135  -23.0369 F   0  0  0  0  0  0  0  0  0  0  0  0
   -4.4348    5.2471  -21.5907 C   0  0  0  0  0  0  0  0  0  0  0  0
   -4.9489    5.2405  -20.2931 C   0  0  0  0  0  0  0  0  0  0  0  0
   -8.1049    4.0727  -10.7994 C   0  0  0  0  0  0  0  0  0  0  0  0
   -8.2434    4.3881   -9.4597 C   0  0  0  0  0  0  0  0  0  0  0  0
   -8.2527    3.6271   -8.1873 C   0  0  0  0  0  0  0  0  0  0  0  0
  1  2  1  0
  2  3  2  0
  2  4  1  0
  4  5  1  0
  5  6  1  0
  6  7  2  0
  7  8  1  0
  8  9  2  0
  9 10  1  0
 10 11  1  0
 11 12  2  0
 11 13  1  0
 13 14  2  0
 14 15  1  0
 15 16  1  0
 15 17  2  0
 17 18  1  0
 18 19  2  0
 19 20  1  0
 20 21  1  0
 20 22  2  0
 22 23  1  0
 23 24  1  0
 24 25  2  0
 25 26  1  0
 26 27  2  0
 27 28  1  0
 27 29  1  0
 29 30  2  0
  9 31  1  0
 31 32  2  0
 32 33  1  0
 33  4  1  0
 32  6  1  0
 19 13  1  0
 30 24  1  0
 23 18  1  0
M  END
>  <name>  (442) 
P116606

>  <alias>  (442) 
None

>  <smina_score_min>  (442) 
-9.707

>  <exports>  (442) 
['/opt/xchem-fragalysis-2/maxwin/BulkDock/OUTPUTS/openbind_xx01zvns2b_c2_elabs_1LOUTNY.sdf', '/opt/xchem-fragalysis-2/maxwin/BulkDock/OUTPUTS/openbind_xx01zvns2b_c2_elabs_1LSYIIV.sdf']

>  <tags>  (442) 
syndirella_placed,openbind_xx01zvns2b_c2_elabs,openbind_xx01zvns2b_c2_elabs_scored_6.2plus,syndirella_product,openbind_xx01zvns2b_c2_elabs_scored,openbind_xx01zvns2b_c2_elabs_scored_top80percent,BulkDock Fragalysis export

>  <subsites>  (442) 
1 - Z4590/B/203/1

>  <smiles>  (442) 
CC(=O)N1Cc2ccc(NC(=O)c3cc(C)nc4c3c(C)nn4-c3ccc(F)cc3)cc2C1

>  <HIPPO Pose ID>  (442) 
116606

>  <energy_score>  (442) 
-5.338434

>  <inchikey>  (442) 
BRIZUWAWAKEAPX-UHFFFAOYSA-N

>  <gnina_score_min>  (442) 
6.436

>  <gnina_score>  (442) 
6.292

>  <ref_mols>  (442) 
Z3556a

>  <HIPPO Compound ID>  (442) 
180031

>  <distance_score>  (442) 
1.139711

>  <rmsd(smina/fragmenstein)>  (442) 
0.35

>  <ref_pdb>  (442) 
Z3556a

>  <inspiration_score>  (442) 
None

$$$$
P116607
     RDKit          3D

 33 37  0  0  0  0  0  0  0  0999 V2000
  -11.7723    1.9899   -5.5331 C   0  0  0  0  0  0  0  0  0  0  0  0
  -10.4764    1.7636   -6.2671 C   0  0  0  0  0  0  0  0  0  0  0  0
   -9.7379    3.0873   -6.3554 C   0  0  0  0  0  0  0  0  0  0  0  0
   -8.5920    3.1133   -7.2416 N   0  0  0  0  0  0  0  0  0  0  0  0
   -8.1057    4.4879   -7.4295 C   0  0  0  0  0  0  0  0  0  0  0  0
   -8.0573    4.7036   -8.8997 C   0  0  0  0  0  0  0  0  0  0  0  0
   -7.7490    5.8577   -9.5845 C   0  0  0  0  0  0  0  0  0  0  0  0
   -7.7155    5.7975  -10.9749 C   0  0  0  0  0  0  0  0  0  0  0  0
   -7.9703    4.5945  -11.6571 C   0  0  0  0  0  0  0  0  0  0  0  0
   -7.8247    4.5441  -13.0396 N   0  0  0  0  0  0  0  0  0  0  0  0
   -7.3285    5.6128  -14.0340 C   0  0  0  0  0  0  0  0  0  0  0  0
   -7.0361    6.7294  -13.8614 O   0  0  0  0  0  0  0  0  0  0  0  0
   -7.1735    5.0819  -15.3928 C   0  0  0  0  0  0  0  0  0  0  0  0
   -8.2711    4.6017  -16.1033 C   0  0  0  0  0  0  0  0  0  0  0  0
   -8.1225    4.3562  -17.4620 C   0  0  0  0  0  0  0  0  0  0  0  0
   -9.3009    3.8935  -18.2697 C   0  0  0  0  0  0  0  0  0  0  0  0
   -6.9678    4.5312  -18.1374 N   0  0  0  0  0  0  0  0  0  0  0  0
   -5.9189    4.9514  -17.3992 C   0  0  0  0  0  0  0  0  0  0  0  0
   -5.9373    5.2126  -16.0402 C   0  0  0  0  0  0  0  0  0  0  0  0
   -4.6026    5.5536  -15.7142 C   0  0  0  0  0  0  0  0  0  0  0  0
   -4.0376    5.9022  -14.3857 C   0  0  0  0  0  0  0  0  0  0  0  0
   -3.7965    5.4997  -16.7812 N   0  0  0  0  0  0  0  0  0  0  0  0
   -4.6236    5.2085  -17.8287 N   0  0  0  0  0  0  0  0  0  0  0  0
   -4.1143    5.2212  -19.1606 C   0  0  0  0  0  0  0  0  0  0  0  0
   -4.9747    5.2366  -20.2686 C   0  0  0  0  0  0  0  0  0  0  0  0
   -4.4543    5.2549  -21.5638 C   0  0  0  0  0  0  0  0  0  0  0  0
   -3.0790    5.2356  -21.7540 C   0  0  0  0  0  0  0  0  0  0  0  0
   -2.5886    5.2206  -23.0008 F   0  0  0  0  0  0  0  0  0  0  0  0
   -2.2107    5.2280  -20.6702 C   0  0  0  0  0  0  0  0  0  0  0  0
   -2.7248    5.2340  -19.3707 C   0  0  0  0  0  0  0  0  0  0  0  0
   -8.3218    3.4434  -10.9519 C   0  0  0  0  0  0  0  0  0  0  0  0
   -8.3677    3.5255   -9.5687 C   0  0  0  0  0  0  0  0  0  0  0  0
   -8.7691    2.4876   -8.5738 C   0  0  0  0  0  0  0  0  0  0  0  0
  1  2  1  0
  2  3  1  0
  3  4  1  0
  4  5  1  0
  5  6  1  0
  6  7  2  0
  7  8  1  0
  8  9  2  0
  9 10  1  0
 10 11  1  0
 11 12  2  0
 11 13  1  0
 13 14  2  0
 14 15  1  0
 15 16  1  0
 15 17  2  0
 17 18  1  0
 18 19  2  0
 19 20  1  0
 20 21  1  0
 20 22  2  0
 22 23  1  0
 23 24  1  0
 24 25  2  0
 25 26  1  0
 26 27  2  0
 27 28  1  0
 27 29  1  0
 29 30  2  0
  9 31  1  0
 31 32  2  0
 32 33  1  0
 33  4  1  0
 32  6  1  0
 19 13  1  0
 30 24  1  0
 23 18  1  0
M  END
>  <name>  (443) 
P116607

>  <alias>  (443) 
None

>  <smina_score_min>  (443) 
-9.292

>  <exports>  (443) 
['/opt/xchem-fragalysis-2/maxwin/BulkDock/OUTPUTS/openbind_xx01zvns2b_c2_elabs_1LOUTNY.sdf', '/opt/xchem-fragalysis-2/maxwin/BulkDock/OUTPUTS/openbind_xx01zvns2b_c2_elabs_1LSYIIV.sdf']

>  <tags>  (443) 
syndirella_placed,openbind_xx01zvns2b_c2_elabs,openbind_xx01zvns2b_c2_elabs_scored_6.2plus,syndirella_product,openbind_xx01zvns2b_c2_elabs_scored,openbind_xx01zvns2b_c2_elabs_scored_top80percent,BulkDock Fragalysis export

>  <subsites>  (443) 
1 - Z4590/B/203/1

>  <smiles>  (443) 
CCCN1Cc2ccc(NC(=O)c3cc(C)nc4c3c(C)nn4-c3ccc(F)cc3)cc2C1

>  <HIPPO Pose ID>  (443) 
116607

>  <energy_score>  (443) 
-54.833693

>  <inchikey>  (443) 
XMWXCISKQCZKTB-UHFFFAOYSA-N

>  <gnina_score_min>  (443) 
6.515

>  <gnina_score>  (443) 
6.466

>  <ref_mols>  (443) 
Z3556a

>  <HIPPO Compound ID>  (443) 
180032

>  <distance_score>  (443) 
0.643335

>  <rmsd(smina/fragmenstein)>  (443) 
0.343

>  <ref_pdb>  (443) 
Z3556a

>  <inspiration_score>  (443) 
None

$$$$
P116608
     RDKit          3D

 33 37  0  0  0  0  0  0  0  0999 V2000
  -10.7858    2.7975   -5.6569 C   0  0  0  0  0  0  0  0  0  0  0  0
   -9.4113    2.3903   -6.1367 C   0  0  0  0  0  0  0  0  0  0  0  0
   -9.0458    3.0687   -7.3516 N   0  0  0  0  0  0  0  0  0  0  0  0
   -8.5601    4.4241   -7.3788 C   0  0  0  0  0  0  0  0  0  0  0  0
   -8.3193    4.6366   -8.8328 C   0  0  0  0  0  0  0  0  0  0  0  0
   -7.8963    5.7683   -9.4914 C   0  0  0  0  0  0  0  0  0  0  0  0
   -7.7206    5.6857  -10.8753 C   0  0  0  0  0  0  0  0  0  0  0  0
   -7.9567    4.4874  -11.5829 C   0  0  0  0  0  0  0  0  0  0  0  0
   -7.6935    4.4292  -12.9498 N   0  0  0  0  0  0  0  0  0  0  0  0
   -7.3022    5.5430  -13.9436 C   0  0  0  0  0  0  0  0  0  0  0  0
   -7.0636    6.6711  -13.7606 O   0  0  0  0  0  0  0  0  0  0  0  0
   -7.1629    5.0457  -15.3188 C   0  0  0  0  0  0  0  0  0  0  0  0
   -8.2664    4.5782  -16.0307 C   0  0  0  0  0  0  0  0  0  0  0  0
   -8.1296    4.3593  -17.3965 C   0  0  0  0  0  0  0  0  0  0  0  0
   -9.3083    3.9010  -18.2067 C   0  0  0  0  0  0  0  0  0  0  0  0
   -6.9824    4.5523  -18.0785 N   0  0  0  0  0  0  0  0  0  0  0  0
   -5.9277    4.9603  -17.3424 C   0  0  0  0  0  0  0  0  0  0  0  0
   -5.9349    5.1982  -15.9786 C   0  0  0  0  0  0  0  0  0  0  0  0
   -4.5998    5.5454  -15.6614 C   0  0  0  0  0  0  0  0  0  0  0  0
   -4.0258    5.8805  -14.3334 C   0  0  0  0  0  0  0  0  0  0  0  0
   -3.8035    5.5151  -16.7365 N   0  0  0  0  0  0  0  0  0  0  0  0
   -4.6349    5.2191  -17.7794 N   0  0  0  0  0  0  0  0  0  0  0  0
   -4.1319    5.2284  -19.1143 C   0  0  0  0  0  0  0  0  0  0  0  0
   -4.9969    5.2369  -20.2189 C   0  0  0  0  0  0  0  0  0  0  0  0
   -4.4821    5.2450  -21.5167 C   0  0  0  0  0  0  0  0  0  0  0  0
   -3.1076    5.2230  -21.7125 C   0  0  0  0  0  0  0  0  0  0  0  0
   -2.6229    5.1959  -22.9613 F   0  0  0  0  0  0  0  0  0  0  0  0
   -2.2347    5.2237  -20.6323 C   0  0  0  0  0  0  0  0  0  0  0  0
   -2.7434    5.2396  -19.3306 C   0  0  0  0  0  0  0  0  0  0  0  0
   -8.4092    3.3530  -10.9136 C   0  0  0  0  0  0  0  0  0  0  0  0
   -8.5873    3.4670   -9.5462 C   0  0  0  0  0  0  0  0  0  0  0  0
   -9.0845    2.4757   -8.5939 C   0  0  0  0  0  0  0  0  0  0  0  0
   -9.4916    1.3748   -8.8874 O   0  0  0  0  0  0  0  0  0  0  0  0
  1  2  1  0
  2  3  1  0
  3  4  1  0
  4  5  1  0
  5  6  2  0
  6  7  1  0
  7  8  2  0
  8  9  1  0
  9 10  1  0
 10 11  2  0
 10 12  1  0
 12 13  2  0
 13 14  1  0
 14 15  1  0
 14 16  2  0
 16 17  1  0
 17 18  2  0
 18 19  1  0
 19 20  1  0
 19 21  2  0
 21 22  1  0
 22 23  1  0
 23 24  2  0
 24 25  1  0
 25 26  2  0
 26 27  1  0
 26 28  1  0
 28 29  2  0
  8 30  1  0
 30 31  2  0
 31 32  1  0
 32 33  2  0
 32  3  1  0
 31  5  1  0
 18 12  1  0
 29 23  1  0
 22 17  1  0
M  END
>  <name>  (444) 
P116608

>  <alias>  (444) 
None

>  <smina_score_min>  (444) 
-9.637

>  <exports>  (444) 
['/opt/xchem-fragalysis-2/maxwin/BulkDock/OUTPUTS/openbind_xx01zvns2b_c2_elabs_1LOUTNY.sdf', '/opt/xchem-fragalysis-2/maxwin/BulkDock/OUTPUTS/openbind_xx01zvns2b_c2_elabs_1LSYIIV.sdf']

>  <tags>  (444) 
syndirella_placed,openbind_xx01zvns2b_c2_elabs,openbind_xx01zvns2b_c2_elabs_scored_6.2plus,syndirella_product,openbind_xx01zvns2b_c2_elabs_scored,openbind_xx01zvns2b_c2_elabs_scored_top80percent,BulkDock Fragalysis export

>  <subsites>  (444) 
1 - Z4590/B/203/1

>  <smiles>  (444) 
CCN1Cc2ccc(NC(=O)c3cc(C)nc4c3c(C)nn4-c3ccc(F)cc3)cc2C1=O

>  <HIPPO Pose ID>  (444) 
116608

>  <energy_score>  (444) 
-37.569792

>  <inchikey>  (444) 
TYUCZDFMKAALMR-UHFFFAOYSA-N

>  <gnina_score_min>  (444) 
6.424

>  <gnina_score>  (444) 
6.417

>  <ref_mols>  (444) 
Z3556a

>  <HIPPO Compound ID>  (444) 
180033

>  <distance_score>  (444) 
0.554654

>  <rmsd(smina/fragmenstein)>  (444) 
0.509

>  <ref_pdb>  (444) 
Z3556a

>  <inspiration_score>  (444) 
None

$$$$
P116609
     RDKit          3D

 33 37  0  0  0  0  0  0  0  0999 V2000
   -9.2844    3.8246  -18.3473 C   0  0  0  0  0  0  0  0  0  0  0  0
   -8.1421    4.3073  -17.5036 C   0  0  0  0  0  0  0  0  0  0  0  0
   -8.3505    4.5720  -16.1590 C   0  0  0  0  0  0  0  0  0  0  0  0
   -7.3008    5.1061  -15.4178 C   0  0  0  0  0  0  0  0  0  0  0  0
   -7.5731    5.7141  -14.1126 C   0  0  0  0  0  0  0  0  0  0  0  0
   -7.4323    6.8679  -14.0220 O   0  0  0  0  0  0  0  0  0  0  0  0
   -8.0344    4.6802  -13.0703 N   0  0  0  0  0  0  0  0  0  0  0  0
   -8.3191    4.8268  -11.7183 C   0  0  0  0  0  0  0  0  0  0  0  0
   -8.5106    6.1157  -11.1856 C   0  0  0  0  0  0  0  0  0  0  0  0
   -8.6264    6.3286   -9.8110 C   0  0  0  0  0  0  0  0  0  0  0  0
   -8.4841    5.2411   -8.9761 C   0  0  0  0  0  0  0  0  0  0  0  0
   -8.2978    3.9601   -9.5230 C   0  0  0  0  0  0  0  0  0  0  0  0
   -8.2831    3.7136  -10.8869 C   0  0  0  0  0  0  0  0  0  0  0  0
   -7.8045    3.0620   -8.4363 C   0  0  0  0  0  0  0  0  0  0  0  0
   -7.2285    4.0297   -7.4255 N   0  0  0  0  0  0  0  0  0  0  0  0
   -5.8548    4.3885   -7.8378 C   0  0  0  0  0  0  0  0  0  0  0  0
   -8.1443    5.2100   -7.4972 C   0  0  0  0  0  0  0  0  0  0  0  0
   -9.3485    4.9111   -6.5831 C   0  0  0  0  0  0  0  0  0  0  0  0
   -7.5215    6.5287   -6.9884 C   0  0  0  0  0  0  0  0  0  0  0  0
   -6.0423    5.2546  -16.0132 C   0  0  0  0  0  0  0  0  0  0  0  0
   -4.7369    5.6563  -15.6460 C   0  0  0  0  0  0  0  0  0  0  0  0
   -4.2510    6.0816  -14.3088 C   0  0  0  0  0  0  0  0  0  0  0  0
   -3.8824    5.5862  -16.6744 N   0  0  0  0  0  0  0  0  0  0  0  0
   -4.6559    5.2426  -17.7474 N   0  0  0  0  0  0  0  0  0  0  0  0
   -4.0978    5.2397  -19.0597 C   0  0  0  0  0  0  0  0  0  0  0  0
   -4.9175    5.2211  -20.1991 C   0  0  0  0  0  0  0  0  0  0  0  0
   -4.3497    5.2225  -21.4746 C   0  0  0  0  0  0  0  0  0  0  0  0
   -2.9682    5.2221  -21.6135 C   0  0  0  0  0  0  0  0  0  0  0  0
   -2.4326    5.1918  -22.8411 F   0  0  0  0  0  0  0  0  0  0  0  0
   -2.1408    5.2511  -20.4982 C   0  0  0  0  0  0  0  0  0  0  0  0
   -2.7024    5.2734  -19.2184 C   0  0  0  0  0  0  0  0  0  0  0  0
   -5.9593    4.9576  -17.3631 C   0  0  0  0  0  0  0  0  0  0  0  0
   -6.9659    4.4944  -18.1346 N   0  0  0  0  0  0  0  0  0  0  0  0
  1  2  1  0
  2  3  2  0
  3  4  1  0
  4  5  1  0
  5  6  2  0
  5  7  1  0
  7  8  1  0
  8  9  2  0
  9 10  1  0
 10 11  2  0
 11 12  1  0
 12 13  2  0
 12 14  1  0
 14 15  1  0
 15 16  1  0
 15 17  1  0
 17 18  1  0
 17 19  1  0
  4 20  2  0
 20 21  1  0
 21 22  1  0
 21 23  2  0
 23 24  1  0
 24 25  1  0
 25 26  2  0
 26 27  1  0
 27 28  2  0
 28 29  1  0
 28 30  1  0
 30 31  2  0
 24 32  1  0
 32 33  2  0
 33  2  1  0
 13  8  1  0
 32 20  1  0
 17 11  1  0
 31 25  1  0
M  END
>  <name>  (445) 
P116609

>  <alias>  (445) 
None

>  <smina_score_min>  (445) 
-8.869

>  <exports>  (445) 
['/opt/xchem-fragalysis-2/maxwin/BulkDock/OUTPUTS/openbind_xx01zvns2b_c2_elabs_1LOUTNY.sdf', '/opt/xchem-fragalysis-2/maxwin/BulkDock/OUTPUTS/openbind_xx01zvns2b_c2_elabs_1LSYIIV.sdf']

>  <tags>  (445) 
syndirella_placed,openbind_xx01zvns2b_c2_elabs,openbind_xx01zvns2b_c2_elabs_scored_6.2plus,syndirella_product,openbind_xx01zvns2b_c2_elabs_scored,openbind_xx01zvns2b_c2_elabs_scored_top80percent,BulkDock Fragalysis export

>  <subsites>  (445) 
1 - Z4590/B/203/1

>  <smiles>  (445) 
Cc1cc(C(=O)Nc2ccc3c(c2)CN(C)C3(C)C)c2c(C)nn(-c3ccc(F)cc3)c2n1

>  <HIPPO Pose ID>  (445) 
116609

>  <energy_score>  (445) 
-42.366529

>  <inchikey>  (445) 
FUOLLMHZBMFPHJ-UHFFFAOYSA-N

>  <gnina_score_min>  (445) 
6.509

>  <gnina_score>  (445) 
6.444

>  <ref_mols>  (445) 
Z3556a

>  <HIPPO Compound ID>  (445) 
180034

>  <distance_score>  (445) 
0.971785

>  <rmsd(smina/fragmenstein)>  (445) 
0.571

>  <ref_pdb>  (445) 
Z3556a

>  <inspiration_score>  (445) 
None

$$$$
P116610
     RDKit          3D

 33 37  0  0  0  0  0  0  0  0999 V2000
  -10.0647    2.9754   -5.1103 C   0  0  0  0  0  0  0  0  0  0  0  0
   -9.9810    2.2362   -6.4307 C   0  0  0  0  0  0  0  0  0  0  0  0
   -9.1101    2.8286   -7.4233 N   0  0  0  0  0  0  0  0  0  0  0  0
   -8.8216    2.0975   -8.6538 C   0  0  0  0  0  0  0  0  0  0  0  0
   -8.4274    3.1814   -9.5986 C   0  0  0  0  0  0  0  0  0  0  0  0
   -8.1426    3.1296  -10.9543 C   0  0  0  0  0  0  0  0  0  0  0  0
   -7.8644    4.3338  -11.6140 C   0  0  0  0  0  0  0  0  0  0  0  0
   -7.5953    4.3243  -12.9798 N   0  0  0  0  0  0  0  0  0  0  0  0
   -7.2494    5.4802  -13.9410 C   0  0  0  0  0  0  0  0  0  0  0  0
   -7.0598    6.6116  -13.7265 O   0  0  0  0  0  0  0  0  0  0  0  0
   -7.1145    5.0238  -15.3282 C   0  0  0  0  0  0  0  0  0  0  0  0
   -8.2249    4.5670  -16.0370 C   0  0  0  0  0  0  0  0  0  0  0  0
   -8.0976    4.3629  -17.4052 C   0  0  0  0  0  0  0  0  0  0  0  0
   -9.2818    3.9106  -18.2108 C   0  0  0  0  0  0  0  0  0  0  0  0
   -6.9538    4.5615  -18.0916 N   0  0  0  0  0  0  0  0  0  0  0  0
   -5.8949    4.9658  -17.3587 C   0  0  0  0  0  0  0  0  0  0  0  0
   -5.8933    5.1914  -15.9928 C   0  0  0  0  0  0  0  0  0  0  0  0
   -4.5592    5.5427  -15.6800 C   0  0  0  0  0  0  0  0  0  0  0  0
   -3.9820    5.8784  -14.3536 C   0  0  0  0  0  0  0  0  0  0  0  0
   -3.7677    5.5138  -16.7584 N   0  0  0  0  0  0  0  0  0  0  0  0
   -4.6042    5.2274  -17.8000 N   0  0  0  0  0  0  0  0  0  0  0  0
   -4.1062    5.2389  -19.1365 C   0  0  0  0  0  0  0  0  0  0  0  0
   -2.7184    5.2508  -19.3576 C   0  0  0  0  0  0  0  0  0  0  0  0
   -2.2140    5.2367  -20.6610 C   0  0  0  0  0  0  0  0  0  0  0  0
   -3.0905    5.2370  -21.7382 C   0  0  0  0  0  0  0  0  0  0  0  0
   -2.6097    5.2131  -22.9885 F   0  0  0  0  0  0  0  0  0  0  0  0
   -4.4643    5.2572  -21.5377 C   0  0  0  0  0  0  0  0  0  0  0  0
   -4.9750    5.2477  -20.2382 C   0  0  0  0  0  0  0  0  0  0  0  0
   -7.8630    5.5553  -10.9103 C   0  0  0  0  0  0  0  0  0  0  0  0
   -8.1474    5.5989   -9.5484 C   0  0  0  0  0  0  0  0  0  0  0  0
   -8.4247    4.4006   -8.9286 C   0  0  0  0  0  0  0  0  0  0  0  0
   -8.8738    4.1848   -7.5556 C   0  0  0  0  0  0  0  0  0  0  0  0
   -9.0464    5.0939   -6.7643 O   0  0  0  0  0  0  0  0  0  0  0  0
  1  2  1  0
  2  3  1  0
  3  4  1  0
  4  5  1  0
  5  6  2  0
  6  7  1  0
  7  8  1  0
  8  9  1  0
  9 10  2  0
  9 11  1  0
 11 12  2  0
 12 13  1  0
 13 14  1  0
 13 15  2  0
 15 16  1  0
 16 17  2  0
 17 18  1  0
 18 19  1  0
 18 20  2  0
 20 21  1  0
 21 22  1  0
 22 23  2  0
 23 24  1  0
 24 25  2  0
 25 26  1  0
 25 27  1  0
 27 28  2  0
  7 29  2  0
 29 30  1  0
 30 31  2  0
 31 32  1  0
 32 33  2  0
 32  3  1  0
 31  5  1  0
 17 11  1  0
 28 22  1  0
 21 16  1  0
M  END
>  <name>  (446) 
P116610

>  <alias>  (446) 
None

>  <smina_score_min>  (446) 
-9.981

>  <exports>  (446) 
['/opt/xchem-fragalysis-2/maxwin/BulkDock/OUTPUTS/openbind_xx01zvns2b_c2_elabs_1LOUTNY.sdf', '/opt/xchem-fragalysis-2/maxwin/BulkDock/OUTPUTS/openbind_xx01zvns2b_c2_elabs_1LSYIIV.sdf']

>  <tags>  (446) 
syndirella_placed,openbind_xx01zvns2b_c2_elabs,openbind_xx01zvns2b_c2_elabs_scored_6.2plus,syndirella_product,openbind_xx01zvns2b_c2_elabs_scored,openbind_xx01zvns2b_c2_elabs_scored_top80percent,BulkDock Fragalysis export

>  <subsites>  (446) 
1 - Z4590/B/203/1

>  <smiles>  (446) 
CCN1Cc2cc(NC(=O)c3cc(C)nc4c3c(C)nn4-c3ccc(F)cc3)ccc2C1=O

>  <HIPPO Pose ID>  (446) 
116610

>  <energy_score>  (446) 
-31.541407

>  <inchikey>  (446) 
PKQJTIHOZIEPNH-UHFFFAOYSA-N

>  <gnina_score_min>  (446) 
6.508

>  <gnina_score>  (446) 
6.421

>  <ref_mols>  (446) 
Z3556a

>  <HIPPO Compound ID>  (446) 
180037

>  <distance_score>  (446) 
0.494513

>  <rmsd(smina/fragmenstein)>  (446) 
0.346

>  <ref_pdb>  (446) 
Z3556a

>  <inspiration_score>  (446) 
None

$$$$
P116621
     RDKit          3D

 33 36  0  0  0  0  0  0  0  0999 V2000
   -9.1635    4.9329   -4.4776 C   0  0  0  0  0  0  0  0  0  0  0  0
   -9.1081    3.4345   -4.7252 C   0  0  0  0  0  0  0  0  0  0  0  0
   -9.5439    2.9384   -6.1165 C   0  0  0  0  0  0  0  0  0  0  0  0
   -8.6138    3.2944   -7.1748 N   0  0  0  0  0  0  0  0  0  0  0  0
   -8.5436    4.7214   -7.4650 C   0  0  0  0  0  0  0  0  0  0  0  0
   -8.3620    4.8171   -8.9331 C   0  0  0  0  0  0  0  0  0  0  0  0
   -8.1234    5.9575   -9.6652 C   0  0  0  0  0  0  0  0  0  0  0  0
   -7.9849    5.8191  -11.0371 C   0  0  0  0  0  0  0  0  0  0  0  0
   -8.0753    4.5589  -11.6559 C   0  0  0  0  0  0  0  0  0  0  0  0
   -7.8604    4.4834  -13.0308 N   0  0  0  0  0  0  0  0  0  0  0  0
   -7.4374    5.5726  -14.0414 C   0  0  0  0  0  0  0  0  0  0  0  0
   -7.2773    6.7204  -13.8950 O   0  0  0  0  0  0  0  0  0  0  0  0
   -7.1794    5.0434  -15.3806 C   0  0  0  0  0  0  0  0  0  0  0  0
   -8.2247    4.5725  -16.1707 C   0  0  0  0  0  0  0  0  0  0  0  0
   -7.9850    4.3553  -17.5247 C   0  0  0  0  0  0  0  0  0  0  0  0
   -9.1225    3.9091  -18.3999 C   0  0  0  0  0  0  0  0  0  0  0  0
   -6.7872    4.5501  -18.1322 N   0  0  0  0  0  0  0  0  0  0  0  0
   -5.8056    4.9508  -17.3035 C   0  0  0  0  0  0  0  0  0  0  0  0
   -5.9107    5.2094  -15.9493 C   0  0  0  0  0  0  0  0  0  0  0  0
   -4.6058    5.6053  -15.5523 C   0  0  0  0  0  0  0  0  0  0  0  0
   -4.1369    6.0017  -14.2004 C   0  0  0  0  0  0  0  0  0  0  0  0
   -3.7397    5.5694  -16.5768 N   0  0  0  0  0  0  0  0  0  0  0  0
   -4.4997    5.1949  -17.6302 N   0  0  0  0  0  0  0  0  0  0  0  0
   -3.9052    5.0163  -18.9373 C   0  0  0  0  0  0  0  0  0  0  0  0
   -3.1422    6.2358  -19.4236 C   0  0  0  0  0  0  0  0  0  0  0  0
   -1.9966    6.1900  -19.6588 O   0  0  0  0  0  0  0  0  0  0  0  0
   -4.1588    7.4028  -19.5868 N   0  0  0  0  0  0  0  0  0  0  0  0
   -3.9535    8.7763  -19.9820 C   0  0  0  0  0  0  0  0  0  0  0  0
   -5.2213    9.3716  -20.5741 C   0  0  0  0  0  0  0  0  0  0  0  0
   -3.4660    9.5936  -18.7905 C   0  0  0  0  0  0  0  0  0  0  0  0
   -8.3462    3.4112  -10.8980 C   0  0  0  0  0  0  0  0  0  0  0  0
   -8.4933    3.5627   -9.5248 C   0  0  0  0  0  0  0  0  0  0  0  0
   -8.8302    2.5652   -8.4533 C   0  0  0  0  0  0  0  0  0  0  0  0
  1  2  1  0
  2  3  1  0
  3  4  1  0
  4  5  1  0
  5  6  1  0
  6  7  2  0
  7  8  1  0
  8  9  2  0
  9 10  1  0
 10 11  1  0
 11 12  2  0
 11 13  1  0
 13 14  2  0
 14 15  1  0
 15 16  1  0
 15 17  2  0
 17 18  1  0
 18 19  2  0
 19 20  1  0
 20 21  1  0
 20 22  2  0
 22 23  1  0
 23 24  1  0
 24 25  1  0
 25 26  2  0
 25 27  1  0
 27 28  1  0
 28 29  1  0
 28 30  1  0
  9 31  1  0
 31 32  2  0
 32 33  1  0
 33  4  1  0
 32  6  1  0
 19 13  1  0
 23 18  1  0
M  END
>  <name>  (447) 
P116621

>  <alias>  (447) 
None

>  <smina_score_min>  (447) 
-7.477

>  <exports>  (447) 
['/opt/xchem-fragalysis-2/maxwin/BulkDock/OUTPUTS/openbind_xx01zvns2b_c2_elabs_1LOUTNY.sdf', '/opt/xchem-fragalysis-2/maxwin/BulkDock/OUTPUTS/openbind_xx01zvns2b_c2_elabs_1LSYIIV.sdf']

>  <tags>  (447) 
syndirella_placed,openbind_xx01zvns2b_c2_elabs,openbind_xx01zvns2b_c2_elabs_scored_6.2plus,syndirella_product,openbind_xx01zvns2b_c2_elabs_scored,openbind_xx01zvns2b_c2_elabs_scored_top80percent,BulkDock Fragalysis export

>  <subsites>  (447) 
1 - Z4590/B/203/1

>  <smiles>  (447) 
CCCN1Cc2ccc(NC(=O)c3cc(C)nc4c3c(C)nn4CC(=O)NC(C)C)cc2C1

>  <HIPPO Pose ID>  (447) 
116621

>  <energy_score>  (447) 
-3.688801

>  <inchikey>  (447) 
RDLFVFKOPFHYFZ-UHFFFAOYSA-N

>  <gnina_score_min>  (447) 
6.204

>  <gnina_score>  (447) 
6.097

>  <ref_mols>  (447) 
Z3556a

>  <HIPPO Compound ID>  (447) 
180064

>  <distance_score>  (447) 
0.635758

>  <rmsd(smina/fragmenstein)>  (447) 
0.466

>  <ref_pdb>  (447) 
Z3556a

>  <inspiration_score>  (447) 
None

$$$$
P116632
     RDKit          3D

 33 37  0  0  0  0  0  0  0  0999 V2000
   -9.1409    3.8776  -18.4680 C   0  0  0  0  0  0  0  0  0  0  0  0
   -7.9852    4.3602  -17.6404 C   0  0  0  0  0  0  0  0  0  0  0  0
   -8.1998    4.6466  -16.2982 C   0  0  0  0  0  0  0  0  0  0  0  0
   -7.1417    5.1692  -15.5604 C   0  0  0  0  0  0  0  0  0  0  0  0
   -7.3641    5.6990  -14.2182 C   0  0  0  0  0  0  0  0  0  0  0  0
   -7.1623    6.8314  -14.0297 O   0  0  0  0  0  0  0  0  0  0  0  0
   -7.8138    4.5916  -13.2508 N   0  0  0  0  0  0  0  0  0  0  0  0
   -8.0117    4.6200  -11.8806 C   0  0  0  0  0  0  0  0  0  0  0  0
   -7.8792    5.8397  -11.1866 C   0  0  0  0  0  0  0  0  0  0  0  0
   -8.0028    5.8898   -9.8064 C   0  0  0  0  0  0  0  0  0  0  0  0
   -8.2753    4.7019   -9.1724 C   0  0  0  0  0  0  0  0  0  0  0  0
   -8.4420    3.4947   -9.8394 C   0  0  0  0  0  0  0  0  0  0  0  0
   -8.3043    3.4302  -11.2101 C   0  0  0  0  0  0  0  0  0  0  0  0
   -8.7719    2.4277   -8.8606 C   0  0  0  0  0  0  0  0  0  0  0  0
   -8.8756    3.1743   -7.6035 N   0  0  0  0  0  0  0  0  0  0  0  0
   -8.9593    2.4572   -6.3447 C   0  0  1  0  0  0  0  0  0  0  0  0
   -9.1358    3.3162   -5.0934 C   0  0  0  0  0  0  0  0  0  0  0  0
  -10.5744    3.6760   -4.8855 C   0  0  1  0  0  0  0  0  0  0  0  0
  -10.8698    4.7678   -5.6445 F   0  0  0  0  0  0  0  0  0  0  0  0
  -11.5515    2.5574   -5.2397 C   0  0  0  0  0  0  0  0  0  0  0  0
  -10.9438    1.3056   -5.4852 N   0  0  0  0  0  0  0  0  0  0  0  0
   -9.9807    1.3159   -6.4438 C   0  0  0  0  0  0  0  0  0  0  0  0
  -10.0097    0.4558   -7.3130 O   0  0  0  0  0  0  0  0  0  0  0  0
   -8.4372    4.4750   -7.7479 C   0  0  0  0  0  0  0  0  0  0  0  0
   -8.1775    5.3339   -6.9264 O   0  0  0  0  0  0  0  0  0  0  0  0
   -5.8864    5.3154  -16.1544 C   0  0  0  0  0  0  0  0  0  0  0  0
   -4.5791    5.7409  -15.7985 C   0  0  0  0  0  0  0  0  0  0  0  0
   -4.0842    6.1988  -14.4762 C   0  0  0  0  0  0  0  0  0  0  0  0
   -3.7404    5.6944  -16.8442 N   0  0  0  0  0  0  0  0  0  0  0  0
   -4.5171    5.2492  -17.8575 N   0  0  0  0  0  0  0  0  0  0  0  0
   -3.9547    5.1414  -19.1768 C   0  0  0  0  0  0  0  0  0  0  0  0
   -5.8058    4.9827  -17.4935 C   0  0  0  0  0  0  0  0  0  0  0  0
   -6.7988    4.5191  -18.2765 N   0  0  0  0  0  0  0  0  0  0  0  0
  1  2  1  0
  2  3  2  0
  3  4  1  0
  4  5  1  0
  5  6  2  0
  5  7  1  0
  7  8  1  0
  8  9  2  0
  9 10  1  0
 10 11  2  0
 11 12  1  0
 12 13  2  0
 12 14  1  0
 14 15  1  0
 16 15  1  6
 16 17  1  0
 17 18  1  0
 18 19  1  6
 18 20  1  0
 20 21  1  0
 21 22  1  0
 22 23  2  0
 15 24  1  0
 24 25  2  0
  4 26  2  0
 26 27  1  0
 27 28  1  0
 27 29  2  0
 29 30  1  0
 30 31  1  0
 30 32  1  0
 32 33  2  0
 33  2  1  0
 13  8  1  0
 22 16  1  0
 32 26  1  0
 24 11  1  0
M  END
>  <name>  (448) 
P116632

>  <alias>  (448) 
None

>  <smina_score_min>  (448) 
-9.474

>  <exports>  (448) 
['/opt/xchem-fragalysis-2/maxwin/BulkDock/OUTPUTS/openbind_xx01zvns2b_c2_elabs_1LOUTNY.sdf', '/opt/xchem-fragalysis-2/maxwin/BulkDock/OUTPUTS/openbind_xx01zvns2b_c2_elabs_1LSYIIV.sdf']

>  <tags>  (448) 
syndirella_placed,openbind_xx01zvns2b_c2_elabs,openbind_xx01zvns2b_c2_elabs_scored_6.2plus,syndirella_product,openbind_xx01zvns2b_c2_elabs_scored,openbind_xx01zvns2b_c2_elabs_scored_top80percent,BulkDock Fragalysis export

>  <subsites>  (448) 
1 - Z4590/B/203/1

>  <smiles>  (448) 
Cc1cc(C(=O)Nc2ccc3c(c2)CN([C@H]2C[C@@H](F)CNC2=O)C3=O)c2c(C)nn(C)c2n1

>  <HIPPO Pose ID>  (448) 
116632

>  <energy_score>  (448) 
-43.152291

>  <inchikey>  (448) 
VNSFKEXPOMFWIW-KDOFPFPSSA-N

>  <gnina_score_min>  (448) 
6.356

>  <gnina_score>  (448) 
6.335

>  <ref_mols>  (448) 
Z3556a

>  <HIPPO Compound ID>  (448) 
180073

>  <distance_score>  (448) 
0.735136

>  <rmsd(smina/fragmenstein)>  (448) 
0.812

>  <ref_pdb>  (448) 
Z3556a

>  <inspiration_score>  (448) 
None

$$$$
P116641
     RDKit          3D

 33 37  0  0  0  0  0  0  0  0999 V2000
   -8.1578    3.9220  -11.8072 C   0  0  0  0  0  0  0  0  0  0  0  0
   -8.0318    3.9660  -13.2303 O   0  0  0  0  0  0  0  0  0  0  0  0
   -7.2929    4.9945  -13.7013 C   0  0  0  0  0  0  0  0  0  0  0  0
   -6.8120    5.9031  -13.0458 O   0  0  0  0  0  0  0  0  0  0  0  0
   -7.1664    4.8752  -15.1647 C   0  0  0  0  0  0  0  0  0  0  0  0
   -8.2405    4.4280  -15.9513 C   0  0  0  0  0  0  0  0  0  0  0  0
   -8.1211    4.4078  -17.3396 C   0  0  0  0  0  0  0  0  0  0  0  0
   -9.2750    3.9408  -18.1804 C   0  0  0  0  0  0  0  0  0  0  0  0
   -7.0161    4.8040  -18.0070 N   0  0  0  0  0  0  0  0  0  0  0  0
   -6.0135    5.2119  -17.2092 C   0  0  0  0  0  0  0  0  0  0  0  0
   -5.9893    5.2612  -15.8230 C   0  0  0  0  0  0  0  0  0  0  0  0
   -4.6693    5.6883  -15.5309 C   0  0  0  0  0  0  0  0  0  0  0  0
   -4.0700    5.8642  -14.1078 C   0  0  0  0  0  0  0  0  0  0  0  0
   -3.8061    4.6463  -13.2590 C   0  0  0  0  0  0  0  0  0  0  0  0
   -2.6557    5.4140  -13.8375 C   0  0  0  0  0  0  0  0  0  0  0  0
   -3.9321    5.9154  -16.6266 N   0  0  0  0  0  0  0  0  0  0  0  0
   -4.8004    5.6750  -17.6316 N   0  0  0  0  0  0  0  0  0  0  0  0
   -4.3837    5.7706  -19.0138 C   0  0  0  0  0  0  0  0  0  0  0  0
   -4.9700    6.9897  -19.7308 C   0  0  0  0  0  0  0  0  0  0  0  0
   -5.2493    7.9985  -19.2003 O   0  0  0  0  0  0  0  0  0  0  0  0
   -4.9908    6.6013  -21.2530 N   0  0  0  0  0  0  0  0  0  0  0  0
   -5.2566    7.3754  -22.3789 C   0  0  0  0  0  0  0  0  0  0  0  0
   -5.3779    8.7704  -22.3090 C   0  0  0  0  0  0  0  0  0  0  0  0
   -5.5865    9.5280  -23.4695 C   0  0  0  0  0  0  0  0  0  0  0  0
   -5.6814    8.8702  -24.6880 C   0  0  0  0  0  0  0  0  0  0  0  0
   -5.5859    7.4807  -24.7468 C   0  0  0  0  0  0  0  0  0  0  0  0
   -5.3659    6.7223  -23.6090 C   0  0  0  0  0  0  0  0  0  0  0  0
   -5.7728    7.0209  -26.1557 C   0  0  0  0  0  0  0  0  0  0  0  0
   -5.5951    8.2431  -26.9655 N   0  0  0  0  0  0  0  0  0  0  0  0
   -6.3079    8.1735  -28.2280 C   0  0  0  0  0  0  0  0  0  0  0  0
   -5.8601    9.4199  -26.0898 C   0  0  0  0  0  0  0  0  0  0  0  0
   -4.7946   10.4831  -26.3976 C   0  0  0  0  0  0  0  0  0  0  0  0
   -7.2620   10.0343  -26.2352 C   0  0  0  0  0  0  0  0  0  0  0  0
  1  2  1  0
  2  3  1  0
  3  4  2  0
  3  5  1  0
  5  6  2  0
  6  7  1  0
  7  8  1  0
  7  9  2  0
  9 10  1  0
 10 11  2  0
 11 12  1  0
 12 13  1  0
 13 14  1  0
 14 15  1  0
 12 16  2  0
 16 17  1  0
 17 18  1  0
 18 19  1  0
 19 20  2  0
 19 21  1  0
 21 22  1  0
 22 23  2  0
 23 24  1  0
 24 25  2  0
 25 26  1  0
 26 27  2  0
 26 28  1  0
 28 29  1  0
 29 30  1  0
 29 31  1  0
 31 32  1  0
 31 33  1  0
 11  5  1  0
 15 13  1  0
 27 22  1  0
 17 10  1  0
 31 25  1  0
M  END
>  <name>  (449) 
P116641

>  <alias>  (449) 
None

>  <smina_score_min>  (449) 
-7.541

>  <exports>  (449) 
['/opt/xchem-fragalysis-2/maxwin/BulkDock/OUTPUTS/openbind_xx01zvns2b_c2_elabs_1LOUTNY.sdf', '/opt/xchem-fragalysis-2/maxwin/BulkDock/OUTPUTS/openbind_xx01zvns2b_c2_elabs_1LSYIIV.sdf']

>  <tags>  (449) 
syndirella_placed,openbind_xx01zvns2b_c2_elabs,openbind_xx01zvns2b_c2_elabs_scored_6.2plus,syndirella_product,openbind_xx01zvns2b_c2_elabs_scored,openbind_xx01zvns2b_c2_elabs_scored_top80percent,BulkDock Fragalysis export

>  <subsites>  (449) 
1 - Z4590/B/203/1

>  <smiles>  (449) 
COC(=O)c1cc(C)nc2c1c(C1CC1)nn2CC(=O)Nc1ccc2c(c1)CN(C)C2(C)C

>  <HIPPO Pose ID>  (449) 
116641

>  <energy_score>  (449) 
-74.058455

>  <inchikey>  (449) 
UUWFHODQBTUXBI-UHFFFAOYSA-N

>  <gnina_score_min>  (449) 
6.2

>  <gnina_score>  (449) 
6.155

>  <ref_mols>  (449) 
Z3556a

>  <HIPPO Compound ID>  (449) 
180089

>  <distance_score>  (449) 
0.465309

>  <rmsd(smina/fragmenstein)>  (449) 
0.433

>  <ref_pdb>  (449) 
Z3556a

>  <inspiration_score>  (449) 
None

$$$$
P116716
     RDKit          3D

 30 33  0  0  0  0  0  0  0  0999 V2000
   -8.6490    4.5028   -1.1307 C   0  0  0  0  0  0  0  0  0  0  0  0
   -8.1601    5.1183   -2.4303 C   0  0  0  0  0  0  0  0  0  0  0  0
   -9.1207    4.9486   -3.4702 O   0  0  0  0  0  0  0  0  0  0  0  0
   -9.0103    3.6736   -4.1228 C   0  0  0  0  0  0  0  0  0  0  0  0
  -10.1964    3.5073   -5.0617 C   0  0  0  0  0  0  0  0  0  0  0  0
  -10.0194    2.5473   -6.2453 C   0  0  0  0  0  0  0  0  0  0  0  0
   -8.9108    2.8404   -7.1431 N   0  0  0  0  0  0  0  0  0  0  0  0
   -8.6104    4.2521   -7.3782 C   0  0  0  0  0  0  0  0  0  0  0  0
   -8.3524    4.3780   -8.8341 C   0  0  0  0  0  0  0  0  0  0  0  0
   -7.9687    5.5109   -9.5179 C   0  0  0  0  0  0  0  0  0  0  0  0
   -7.8386    5.4173  -10.8958 C   0  0  0  0  0  0  0  0  0  0  0  0
   -8.1040    4.2122  -11.5699 C   0  0  0  0  0  0  0  0  0  0  0  0
   -7.9699    4.1815  -12.9549 N   0  0  0  0  0  0  0  0  0  0  0  0
   -7.4753    5.2644  -13.9394 C   0  0  0  0  0  0  0  0  0  0  0  0
   -7.1756    6.3780  -13.7523 O   0  0  0  0  0  0  0  0  0  0  0  0
   -7.4171    4.7929  -15.3292 C   0  0  0  0  0  0  0  0  0  0  0  0
   -8.5659    4.3761  -16.0059 C   0  0  0  0  0  0  0  0  0  0  0  0
   -8.5285    4.2218  -17.4050 C   0  0  0  0  0  0  0  0  0  0  0  0
  -10.1234    3.8377  -18.3324 Br  0  0  0  0  0  0  0  0  0  0  0  0
   -7.3675    4.4565  -18.1449 C   0  0  0  0  0  0  0  0  0  0  0  0
   -6.2497    4.8474  -17.4458 C   0  0  0  0  0  0  0  0  0  0  0  0
   -6.2681    5.0027  -16.0641 C   0  0  0  0  0  0  0  0  0  0  0  0
   -5.0032    5.4318  -15.6616 N   0  0  0  0  0  0  0  0  0  0  0  0
   -4.1847    5.5663  -16.7904 C   0  0  0  0  0  0  0  0  0  0  0  0
   -3.0295    5.9550  -16.7913 O   0  0  0  0  0  0  0  0  0  0  0  0
   -4.9708    5.1958  -17.8953 N   0  0  0  0  0  0  0  0  0  0  0  0
   -4.6042    5.3699  -19.2687 C   0  0  0  0  0  0  0  0  0  0  0  0
   -8.4923    3.0701  -10.8592 C   0  0  0  0  0  0  0  0  0  0  0  0
   -8.6038    3.1708   -9.4786 C   0  0  0  0  0  0  0  0  0  0  0  0
   -8.9983    2.1449   -8.4557 C   0  0  0  0  0  0  0  0  0  0  0  0
  1  2  1  0
  2  3  1  0
  3  4  1  0
  4  5  1  0
  5  6  1  0
  6  7  1  0
  7  8  1  0
  8  9  1  0
  9 10  2  0
 10 11  1  0
 11 12  2  0
 12 13  1  0
 13 14  1  0
 14 15  2  0
 14 16  1  0
 16 17  2  0
 17 18  1  0
 18 19  1  0
 18 20  2  0
 20 21  1  0
 21 22  2  0
 22 23  1  0
 23 24  1  0
 24 25  2  0
 24 26  1  0
 26 27  1  0
 12 28  1  0
 28 29  2  0
 29 30  1  0
 30  7  1  0
 29  9  1  0
 22 16  1  0
 26 21  1  0
M  END
>  <name>  (450) 
P116716

>  <alias>  (450) 
None

>  <smina_score_min>  (450) 
-8.317

>  <exports>  (450) 
['/opt/xchem-fragalysis-2/maxwin/BulkDock/OUTPUTS/openbind_xx01zvns2b_c2_elabs_1LOUTNY.sdf', '/opt/xchem-fragalysis-2/maxwin/BulkDock/OUTPUTS/openbind_xx01zvns2b_c2_elabs_1LSYIIV.sdf']

>  <tags>  (450) 
syndirella_placed,openbind_xx01zvns2b_c2_elabs,openbind_xx01zvns2b_c2_elabs_scored_6.2plus,syndirella_product,openbind_xx01zvns2b_c2_elabs_scored,openbind_xx01zvns2b_c2_elabs_scored_top80percent,BulkDock Fragalysis export

>  <subsites>  (450) 
1 - Z4590/B/203/1

>  <smiles>  (450) 
CCOCCCN1Cc2ccc(NC(=O)c3cc(Br)cc4c3[nH]c(=O)n4C)cc2C1

>  <HIPPO Pose ID>  (450) 
116716

>  <energy_score>  (450) 
-48.21191

>  <inchikey>  (450) 
QSUWSLUCLRQNKL-UHFFFAOYSA-N

>  <gnina_score_min>  (450) 
6.296

>  <gnina_score>  (450) 
6.205

>  <ref_mols>  (450) 
Z3485a

>  <HIPPO Compound ID>  (450) 
180177

>  <distance_score>  (450) 
0.526512

>  <rmsd(smina/fragmenstein)>  (450) 
0.432

>  <ref_pdb>  (450) 
Z3485a

>  <inspiration_score>  (450) 
None

$$$$
P116731
     RDKit          3D

 33 37  0  0  0  0  0  0  0  0999 V2000
   -7.3557    5.4002   -0.6749 C   0  0  0  0  0  0  0  0  0  0  0  0
   -8.6531    4.7329   -1.1390 C   0  0  0  0  0  0  0  0  0  0  0  0
   -9.8662    5.3612   -0.4525 C   0  0  0  0  0  0  0  0  0  0  0  0
   -8.7998    4.7622   -2.6459 C   0  0  0  0  0  0  0  0  0  0  0  0
   -8.7396    5.9284   -3.3889 C   0  0  0  0  0  0  0  0  0  0  0  0
   -8.8444    5.8694   -4.7855 C   0  0  0  0  0  0  0  0  0  0  0  0
   -8.9900    4.6608   -5.5176 C   0  0  0  0  0  0  0  0  0  0  0  0
   -8.9712    4.6367   -6.9016 N   0  0  0  0  0  0  0  0  0  0  0  0
   -8.2970    5.7809   -7.4801 C   0  0  0  0  0  0  0  0  0  0  0  0
   -8.1767    5.4338   -8.9017 C   0  0  0  0  0  0  0  0  0  0  0  0
   -7.7864    6.3432   -9.8474 C   0  0  0  0  0  0  0  0  0  0  0  0
   -7.7620    5.9105  -11.1438 C   0  0  0  0  0  0  0  0  0  0  0  0
   -8.0964    4.5899  -11.4959 C   0  0  0  0  0  0  0  0  0  0  0  0
   -8.0047    4.3410  -12.8680 N   0  0  0  0  0  0  0  0  0  0  0  0
   -7.4633    5.2308  -14.0199 C   0  0  0  0  0  0  0  0  0  0  0  0
   -7.0822    6.3386  -14.0086 O   0  0  0  0  0  0  0  0  0  0  0  0
   -7.4362    4.6220  -15.3503 C   0  0  0  0  0  0  0  0  0  0  0  0
   -8.6152    4.2583  -16.0011 C   0  0  0  0  0  0  0  0  0  0  0  0
   -8.6187    4.1441  -17.4056 C   0  0  0  0  0  0  0  0  0  0  0  0
  -10.2508    3.8750  -18.3088 Br  0  0  0  0  0  0  0  0  0  0  0  0
   -7.4726    4.3660  -18.1738 C   0  0  0  0  0  0  0  0  0  0  0  0
   -6.3260    4.7147  -17.5017 C   0  0  0  0  0  0  0  0  0  0  0  0
   -6.3015    4.8245  -16.1183 C   0  0  0  0  0  0  0  0  0  0  0  0
   -5.0263    5.2564  -15.7437 N   0  0  0  0  0  0  0  0  0  0  0  0
   -4.2500    5.4456  -16.8923 C   0  0  0  0  0  0  0  0  0  0  0  0
   -3.1074    5.8698  -16.9175 O   0  0  0  0  0  0  0  0  0  0  0  0
   -5.0639    5.0871  -17.9809 N   0  0  0  0  0  0  0  0  0  0  0  0
   -4.7581    5.3363  -19.3564 C   0  0  0  0  0  0  0  0  0  0  0  0
   -8.4832    3.6606  -10.5037 C   0  0  0  0  0  0  0  0  0  0  0  0
   -8.5318    4.1097   -9.1753 C   0  0  0  0  0  0  0  0  0  0  0  0
   -8.9283    3.4605   -7.8512 C   0  0  0  0  0  0  0  0  0  0  0  0
   -9.1475    3.5274   -4.7515 C   0  0  0  0  0  0  0  0  0  0  0  0
   -9.0269    3.5797   -3.3493 C   0  0  0  0  0  0  0  0  0  0  0  0
  1  2  1  0
  2  3  1  0
  2  4  1  0
  4  5  2  0
  5  6  1  0
  6  7  2  0
  7  8  1  0
  8  9  1  0
  9 10  1  0
 10 11  2  0
 11 12  1  0
 12 13  2  0
 13 14  1  0
 14 15  1  0
 15 16  2  0
 15 17  1  0
 17 18  2  0
 18 19  1  0
 19 20  1  0
 19 21  2  0
 21 22  1  0
 22 23  2  0
 23 24  1  0
 24 25  1  0
 25 26  2  0
 25 27  1  0
 27 28  1  0
 13 29  1  0
 29 30  2  0
 30 31  1  0
  7 32  1  0
 32 33  2  0
 33  4  1  0
 31  8  1  0
 30 10  1  0
 23 17  1  0
 27 22  1  0
M  END
>  <name>  (451) 
P116731

>  <alias>  (451) 
None

>  <smina_score_min>  (451) 
-9.205

>  <exports>  (451) 
['/opt/xchem-fragalysis-2/maxwin/BulkDock/OUTPUTS/openbind_xx01zvns2b_c2_elabs_1LOUTNY.sdf', '/opt/xchem-fragalysis-2/maxwin/BulkDock/OUTPUTS/openbind_xx01zvns2b_c2_elabs_1LSYIIV.sdf']

>  <tags>  (451) 
syndirella_placed,openbind_xx01zvns2b_c2_elabs,openbind_xx01zvns2b_c2_elabs_scored_6.2plus,syndirella_product,openbind_xx01zvns2b_c2_elabs_scored,openbind_xx01zvns2b_c2_elabs_scored_top80percent,BulkDock Fragalysis export

>  <subsites>  (451) 
1 - Z4590/B/203/1

>  <smiles>  (451) 
CC(C)c1ccc(N2Cc3ccc(NC(=O)c4cc(Br)cc5c4[nH]c(=O)n5C)cc3C2)cc1

>  <HIPPO Pose ID>  (451) 
116731

>  <energy_score>  (451) 
-30.968635

>  <inchikey>  (451) 
KGSFYCRCCKAKDL-UHFFFAOYSA-N

>  <gnina_score_min>  (451) 
6.278

>  <gnina_score>  (451) 
6.359

>  <ref_mols>  (451) 
Z3485a

>  <HIPPO Compound ID>  (451) 
180192

>  <distance_score>  (451) 
1.085903

>  <rmsd(smina/fragmenstein)>  (451) 
0.484

>  <ref_pdb>  (451) 
Z3485a

>  <inspiration_score>  (451) 
None

$$$$
P116848
     RDKit          3D

 30 34  0  0  0  0  0  0  0  0999 V2000
   -8.6248    5.0596   -3.4206 C   0  0  0  0  0  0  0  0  0  0  0  0
   -8.7123    3.7069   -4.1129 C   0  0  0  0  0  0  0  0  0  0  0  0
   -9.9821    3.5769   -4.9564 C   0  0  0  0  0  0  0  0  0  0  0  0
   -9.9270    2.6258   -6.1671 C   0  0  0  0  0  0  0  0  0  0  0  0
   -8.8749    2.8988   -7.1341 N   0  0  0  0  0  0  0  0  0  0  0  0
   -8.5634    4.3018   -7.3891 C   0  0  0  0  0  0  0  0  0  0  0  0
   -8.3263    4.4023   -8.8505 C   0  0  0  0  0  0  0  0  0  0  0  0
   -7.9495    5.5234   -9.5578 C   0  0  0  0  0  0  0  0  0  0  0  0
   -7.8784    5.4188  -10.9394 C   0  0  0  0  0  0  0  0  0  0  0  0
   -8.1902    4.2138  -11.5928 C   0  0  0  0  0  0  0  0  0  0  0  0
   -8.1592    4.1881  -12.9849 N   0  0  0  0  0  0  0  0  0  0  0  0
   -7.5913    5.2119  -13.9964 C   0  0  0  0  0  0  0  0  0  0  0  0
   -7.1298    6.2725  -13.8233 O   0  0  0  0  0  0  0  0  0  0  0  0
   -7.7039    4.7595  -15.4023 C   0  0  0  0  0  0  0  0  0  0  0  0
   -8.8699    4.1873  -15.9200 C   0  0  0  0  0  0  0  0  0  0  0  0
   -8.9844    3.9430  -17.2865 C   0  0  0  0  0  0  0  0  0  0  0  0
   -7.9452    4.2787  -18.1658 C   0  0  0  0  0  0  0  0  0  0  0  0
   -6.7607    4.8596  -17.6677 C   0  0  0  0  0  0  0  0  0  0  0  0
   -5.5524    5.3610  -18.2577 C   0  0  0  0  0  0  0  0  0  0  0  0
   -4.7194    5.7413  -17.2172 C   0  0  0  0  0  0  0  0  0  0  0  0
   -5.4288    5.6187  -16.0527 N   0  0  0  0  0  0  0  0  0  0  0  0
   -6.6651    5.0672  -16.2959 C   0  0  0  0  0  0  0  0  0  0  0  0
   -3.3086    6.2301  -17.2242 C   0  0  0  0  0  0  0  0  0  0  0  0
   -2.4930    5.6014  -18.3543 C   0  0  0  0  0  0  0  0  0  0  0  0
   -2.7677    6.1839  -19.7439 C   0  0  0  0  0  0  0  0  0  0  0  0
   -4.2216    6.5288  -20.0778 C   0  0  0  0  0  0  0  0  0  0  0  0
   -5.2400    5.4461  -19.7189 C   0  0  0  0  0  0  0  0  0  0  0  0
   -8.5572    3.0796  -10.8574 C   0  0  0  0  0  0  0  0  0  0  0  0
   -8.6174    3.1923   -9.4743 C   0  0  0  0  0  0  0  0  0  0  0  0
   -9.0290    2.1927   -8.4312 C   0  0  0  0  0  0  0  0  0  0  0  0
  1  2  1  0
  2  3  1  0
  3  4  1  0
  4  5  1  0
  5  6  1  0
  6  7  1  0
  7  8  2  0
  8  9  1  0
  9 10  2  0
 10 11  1  0
 11 12  1  0
 12 13  2  0
 12 14  1  0
 14 15  2  0
 15 16  1  0
 16 17  2  0
 17 18  1  0
 18 19  1  0
 19 20  2  0
 20 21  1  0
 21 22  1  0
 20 23  1  0
 23 24  1  0
 24 25  1  0
 25 26  1  0
 26 27  1  0
 10 28  1  0
 28 29  2  0
 29 30  1  0
 30  5  1  0
 29  7  1  0
 22 14  1  0
 22 18  2  0
 27 19  1  0
M  END
>  <name>  (452) 
P116848

>  <alias>  (452) 
None

>  <smina_score_min>  (452) 
-9.818

>  <exports>  (452) 
['/opt/xchem-fragalysis-2/maxwin/BulkDock/OUTPUTS/openbind_xx01zvns2b_c2_elabs_1LOUTNY.sdf', '/opt/xchem-fragalysis-2/maxwin/BulkDock/OUTPUTS/openbind_xx01zvns2b_c2_elabs_1LSYIIV.sdf']

>  <tags>  (452) 
syndirella_placed,openbind_xx01zvns2b_c2_elabs,openbind_xx01zvns2b_c2_elabs_scored_6.2plus,syndirella_product,openbind_xx01zvns2b_c2_elabs_scored,openbind_xx01zvns2b_c2_elabs_scored_top80percent,BulkDock Fragalysis export

>  <subsites>  (452) 
1 - Z4590/B/203/1

>  <smiles>  (452) 
CCCCN1Cc2ccc(NC(=O)c3cccc4c5c([nH]c34)CCCCC5)cc2C1

>  <HIPPO Pose ID>  (452) 
116848

>  <energy_score>  (452) 
-58.720725

>  <inchikey>  (452) 
AQAHWBRLQGONQC-UHFFFAOYSA-N

>  <gnina_score_min>  (452) 
6.31

>  <gnina_score>  (452) 
6.179

>  <ref_mols>  (452) 
Z3817a

>  <HIPPO Compound ID>  (452) 
180376

>  <distance_score>  (452) 
0.530623

>  <rmsd(smina/fragmenstein)>  (452) 
0.499

>  <ref_pdb>  (452) 
Z3817a

>  <inspiration_score>  (452) 
None

$$$$
P116849
     RDKit          3D

 30 34  0  0  0  0  0  0  0  0999 V2000
   -7.0775    6.2902  -13.9111 O   0  0  0  0  0  0  0  0  0  0  0  0
   -7.5477    5.2354  -14.0913 C   0  0  0  0  0  0  0  0  0  0  0  0
   -8.0420    4.1741  -13.0839 N   0  0  0  0  0  0  0  0  0  0  0  0
   -8.1457    4.2233  -11.6992 C   0  0  0  0  0  0  0  0  0  0  0  0
   -7.8528    5.4237  -11.0286 C   0  0  0  0  0  0  0  0  0  0  0  0
   -7.9486    5.5131   -9.6455 C   0  0  0  0  0  0  0  0  0  0  0  0
   -8.3299    4.3821   -8.9579 C   0  0  0  0  0  0  0  0  0  0  0  0
   -8.6228    3.1838   -9.6090 C   0  0  0  0  0  0  0  0  0  0  0  0
   -8.5377    3.0858  -10.9876 C   0  0  0  0  0  0  0  0  0  0  0  0
   -9.0584    2.1681   -8.5986 C   0  0  0  0  0  0  0  0  0  0  0  0
   -8.7920    2.8094   -7.3014 N   0  0  0  0  0  0  0  0  0  0  0  0
   -9.7252    2.4784   -6.2328 C   0  0  0  0  0  0  0  0  0  0  0  0
   -9.4933    3.2376   -4.9141 C   0  0  0  0  0  0  0  0  0  0  0  0
   -8.1784    3.3838   -4.6046 F   0  0  0  0  0  0  0  0  0  0  0  0
   -9.9864    4.5052   -5.0185 F   0  0  0  0  0  0  0  0  0  0  0  0
   -8.5524    4.2371   -7.4963 C   0  0  0  0  0  0  0  0  0  0  0  0
   -7.6706    4.7771  -15.4948 C   0  0  0  0  0  0  0  0  0  0  0  0
   -8.8230    4.1648  -15.9954 C   0  0  0  0  0  0  0  0  0  0  0  0
   -8.9284    3.8842  -17.3549 C   0  0  0  0  0  0  0  0  0  0  0  0
   -7.8950    4.2220  -18.2414 C   0  0  0  0  0  0  0  0  0  0  0  0
   -6.7270    4.8515  -17.7607 C   0  0  0  0  0  0  0  0  0  0  0  0
   -5.5439    5.4057  -18.3701 C   0  0  0  0  0  0  0  0  0  0  0  0
   -4.7662    5.9214  -17.3439 C   0  0  0  0  0  0  0  0  0  0  0  0
   -5.4353    5.7041  -16.1674 N   0  0  0  0  0  0  0  0  0  0  0  0
   -6.6436    5.0954  -16.3962 C   0  0  0  0  0  0  0  0  0  0  0  0
   -3.4854    6.6805  -17.3337 C   0  0  0  0  0  0  0  0  0  0  0  0
   -2.4619    6.2029  -18.3531 C   0  0  0  0  0  0  0  0  0  0  0  0
   -2.8871    6.4435  -19.8008 C   0  0  0  0  0  0  0  0  0  0  0  0
   -3.8524    5.3845  -20.3232 C   0  0  0  0  0  0  0  0  0  0  0  0
   -5.2979    5.5032  -19.8449 C   0  0  0  0  0  0  0  0  0  0  0  0
  1  2  2  0
  2  3  1  0
  3  4  1  0
  4  5  2  0
  5  6  1  0
  6  7  2  0
  7  8  1  0
  8  9  2  0
  8 10  1  0
 10 11  1  0
 11 12  1  0
 12 13  1  0
 13 14  1  0
 13 15  1  0
 11 16  1  0
  2 17  1  0
 17 18  2  0
 18 19  1  0
 19 20  2  0
 20 21  1  0
 21 22  1  0
 22 23  2  0
 23 24  1  0
 24 25  1  0
 23 26  1  0
 26 27  1  0
 27 28  1  0
 28 29  1  0
 29 30  1  0
  9  4  1  0
 25 17  1  0
 16  7  1  0
 25 21  2  0
 30 22  1  0
M  END
>  <name>  (453) 
P116849

>  <alias>  (453) 
None

>  <smina_score_min>  (453) 
-10.587

>  <exports>  (453) 
['/opt/xchem-fragalysis-2/maxwin/BulkDock/OUTPUTS/openbind_xx01zvns2b_c2_elabs_1LOUTNY.sdf', '/opt/xchem-fragalysis-2/maxwin/BulkDock/OUTPUTS/openbind_xx01zvns2b_c2_elabs_1LSYIIV.sdf']

>  <tags>  (453) 
syndirella_placed,openbind_xx01zvns2b_c2_elabs,openbind_xx01zvns2b_c2_elabs_scored_6.2plus,syndirella_product,openbind_xx01zvns2b_c2_elabs_scored,openbind_xx01zvns2b_c2_elabs_scored_top80percent,BulkDock Fragalysis export

>  <subsites>  (453) 
1 - Z4590/B/203/1

>  <smiles>  (453) 
O=C(Nc1ccc2c(c1)CN(CC(F)F)C2)c1cccc2c3c([nH]c12)CCCCC3

>  <HIPPO Pose ID>  (453) 
116849

>  <energy_score>  (453) 
-158.609158

>  <inchikey>  (453) 
QHCUMDITIDMQES-UHFFFAOYSA-N

>  <gnina_score_min>  (453) 
6.322

>  <gnina_score>  (453) 
6.075

>  <ref_mols>  (453) 
Z3817a

>  <HIPPO Compound ID>  (453) 
180377

>  <distance_score>  (453) 
0.602245

>  <rmsd(smina/fragmenstein)>  (453) 
0.896

>  <ref_pdb>  (453) 
Z3817a

>  <inspiration_score>  (453) 
None

$$$$
P116853
     RDKit          3D

 30 34  0  0  0  0  0  0  0  0999 V2000
   -8.6208    5.0668   -3.4298 C   0  0  0  0  0  0  0  0  0  0  0  0
   -8.7042    3.7156   -4.1257 C   0  0  0  0  0  0  0  0  0  0  0  0
   -9.9773    3.5817   -4.9635 C   0  0  0  0  0  0  0  0  0  0  0  0
   -9.9237    2.6291   -6.1731 C   0  0  0  0  0  0  0  0  0  0  0  0
   -8.8780    2.9085   -7.1450 N   0  0  0  0  0  0  0  0  0  0  0  0
   -8.5831    4.3135   -7.4084 C   0  0  0  0  0  0  0  0  0  0  0  0
   -8.3331    4.4041   -8.8685 C   0  0  0  0  0  0  0  0  0  0  0  0
   -7.9467    5.5182   -9.5814 C   0  0  0  0  0  0  0  0  0  0  0  0
   -7.8394    5.3961  -10.9597 C   0  0  0  0  0  0  0  0  0  0  0  0
   -8.1319    4.1827  -11.6064 C   0  0  0  0  0  0  0  0  0  0  0  0
   -8.0292    4.1218  -12.9948 N   0  0  0  0  0  0  0  0  0  0  0  0
   -7.6251    5.2074  -14.0214 C   0  0  0  0  0  0  0  0  0  0  0  0
   -7.2408    6.3001  -13.8578 O   0  0  0  0  0  0  0  0  0  0  0  0
   -7.7313    4.7437  -15.4229 C   0  0  0  0  0  0  0  0  0  0  0  0
   -8.8830    4.1403  -15.9344 C   0  0  0  0  0  0  0  0  0  0  0  0
   -8.9872    3.8717  -17.2981 C   0  0  0  0  0  0  0  0  0  0  0  0
   -7.9513    4.2074  -18.1813 C   0  0  0  0  0  0  0  0  0  0  0  0
   -6.7855    4.8255  -17.6891 C   0  0  0  0  0  0  0  0  0  0  0  0
   -5.6007    5.3574  -18.2791 C   0  0  0  0  0  0  0  0  0  0  0  0
   -4.8285    5.8708  -17.2575 C   0  0  0  0  0  0  0  0  0  0  0  0
   -5.4887    5.6845  -16.0804 N   0  0  0  0  0  0  0  0  0  0  0  0
   -6.7000    5.0693  -16.3184 C   0  0  0  0  0  0  0  0  0  0  0  0
   -3.5195    6.5525  -17.4001 C   0  0  0  0  0  0  0  0  0  0  0  0
   -3.3900    7.0764  -18.8424 C   0  0  0  0  0  0  0  0  0  0  0  0
   -3.7715    6.0214  -19.9126 C   0  0  1  0  0  0  0  0  0  0  0  0
   -2.7338    4.8967  -19.9528 C   0  0  0  0  0  0  0  0  0  0  0  0
   -5.2175    5.4796  -19.7196 C   0  0  0  0  0  0  0  0  0  0  0  0
   -8.5186    3.0585  -10.8651 C   0  0  0  0  0  0  0  0  0  0  0  0
   -8.6090    3.1868   -9.4849 C   0  0  0  0  0  0  0  0  0  0  0  0
   -9.0288    2.1946   -8.4381 C   0  0  0  0  0  0  0  0  0  0  0  0
  1  2  1  0
  2  3  1  0
  3  4  1  0
  4  5  1  0
  5  6  1  0
  6  7  1  0
  7  8  2  0
  8  9  1  0
  9 10  2  0
 10 11  1  0
 11 12  1  0
 12 13  2  0
 12 14  1  0
 14 15  2  0
 15 16  1  0
 16 17  2  0
 17 18  1  0
 18 19  1  0
 19 20  2  0
 20 21  1  0
 21 22  1  0
 20 23  1  0
 23 24  1  0
 24 25  1  0
 25 26  1  1
 25 27  1  0
 10 28  1  0
 28 29  2  0
 29 30  1  0
 30  5  1  0
 29  7  1  0
 22 14  1  0
 22 18  2  0
 27 19  1  0
M  END
>  <name>  (454) 
P116853

>  <alias>  (454) 
None

>  <smina_score_min>  (454) 
-9.928

>  <exports>  (454) 
['/opt/xchem-fragalysis-2/maxwin/BulkDock/OUTPUTS/openbind_xx01zvns2b_c2_elabs_1LOUTNY.sdf', '/opt/xchem-fragalysis-2/maxwin/BulkDock/OUTPUTS/openbind_xx01zvns2b_c2_elabs_1LSYIIV.sdf']

>  <tags>  (454) 
syndirella_placed,openbind_xx01zvns2b_c2_elabs,openbind_xx01zvns2b_c2_elabs_scored_6.2plus,syndirella_product,openbind_xx01zvns2b_c2_elabs_scored,openbind_xx01zvns2b_c2_elabs_scored_top80percent,BulkDock Fragalysis export

>  <subsites>  (454) 
1 - Z4590/B/203/1

>  <smiles>  (454) 
CCCCN1Cc2ccc(NC(=O)c3cccc4c5c([nH]c34)CC[C@@H](C)C5)cc2C1

>  <HIPPO Pose ID>  (454) 
116853

>  <energy_score>  (454) 
-60.500312

>  <inchikey>  (454) 
PGDYSTLTJAIWMN-QGZVFWFLSA-N

>  <gnina_score_min>  (454) 
6.301

>  <gnina_score>  (454) 
6.155

>  <ref_mols>  (454) 
Z3817a

>  <HIPPO Compound ID>  (454) 
180380

>  <distance_score>  (454) 
0.572382

>  <rmsd(smina/fragmenstein)>  (454) 
0.48

>  <ref_pdb>  (454) 
Z3817a

>  <inspiration_score>  (454) 
None

$$$$
P116867
     RDKit          3D

 31 35  0  0  0  0  0  0  0  0999 V2000
   -8.4649    6.1076   -4.3718 C   0  0  0  0  0  0  0  0  0  0  0  0
   -8.0580    4.7465   -4.3705 O   0  0  0  0  0  0  0  0  0  0  0  0
   -9.0759    3.8642   -3.8942 C   0  0  0  0  0  0  0  0  0  0  0  0
  -10.0226    3.3729   -4.9922 C   0  0  0  0  0  0  0  0  0  0  0  0
   -9.3660    2.4867   -6.0646 C   0  0  0  0  0  0  0  0  0  0  0  0
   -9.4242    3.1235   -7.3682 N   0  0  0  0  0  0  0  0  0  0  0  0
   -8.5108    4.2714   -7.4626 C   0  0  0  0  0  0  0  0  0  0  0  0
   -8.2792    4.4025   -8.9246 C   0  0  0  0  0  0  0  0  0  0  0  0
   -7.8288    5.5011   -9.6189 C   0  0  0  0  0  0  0  0  0  0  0  0
   -7.7473    5.3916  -10.9997 C   0  0  0  0  0  0  0  0  0  0  0  0
   -8.1061    4.2007  -11.6579 C   0  0  0  0  0  0  0  0  0  0  0  0
   -8.0361    4.1540  -13.0452 N   0  0  0  0  0  0  0  0  0  0  0  0
   -7.5160    5.1976  -14.0599 C   0  0  0  0  0  0  0  0  0  0  0  0
   -6.9936    6.2290  -13.8858 O   0  0  0  0  0  0  0  0  0  0  0  0
   -7.6893    4.7598  -15.4643 C   0  0  0  0  0  0  0  0  0  0  0  0
   -8.8654    4.1770  -15.9448 C   0  0  0  0  0  0  0  0  0  0  0  0
   -9.0079    3.9068  -17.3039 C   0  0  0  0  0  0  0  0  0  0  0  0
   -7.9851    4.2184  -18.2108 C   0  0  0  0  0  0  0  0  0  0  0  0
   -6.7950    4.8169  -17.7497 C   0  0  0  0  0  0  0  0  0  0  0  0
   -5.6022    5.3110  -18.3750 C   0  0  0  0  0  0  0  0  0  0  0  0
   -4.7870    5.8033  -17.3675 C   0  0  0  0  0  0  0  0  0  0  0  0
   -5.4489    5.6460  -16.1809 N   0  0  0  0  0  0  0  0  0  0  0  0
   -6.6765    5.0620  -16.3870 C   0  0  0  0  0  0  0  0  0  0  0  0
   -3.4442    6.4503  -17.4321 C   0  0  0  0  0  0  0  0  0  0  0  0
   -3.3513    7.4063  -18.6216 C   0  0  0  0  0  0  0  0  0  0  0  0
   -3.1391    6.7255  -19.9778 C   0  0  0  0  0  0  0  0  0  0  0  0
   -3.8277    5.3754  -20.1971 C   0  0  0  0  0  0  0  0  0  0  0  0
   -5.3168    5.3372  -19.8464 C   0  0  0  0  0  0  0  0  0  0  0  0
   -8.5379    3.0837  -10.9342 C   0  0  0  0  0  0  0  0  0  0  0  0
   -8.6249    3.2059   -9.5583 C   0  0  0  0  0  0  0  0  0  0  0  0
   -9.0905    2.2367   -8.5093 C   0  0  0  0  0  0  0  0  0  0  0  0
  1  2  1  0
  2  3  1  0
  3  4  1  0
  4  5  1  0
  5  6  1  0
  6  7  1  0
  7  8  1  0
  8  9  2  0
  9 10  1  0
 10 11  2  0
 11 12  1  0
 12 13  1  0
 13 14  2  0
 13 15  1  0
 15 16  2  0
 16 17  1  0
 17 18  2  0
 18 19  1  0
 19 20  1  0
 20 21  2  0
 21 22  1  0
 22 23  1  0
 21 24  1  0
 24 25  1  0
 25 26  1  0
 26 27  1  0
 27 28  1  0
 11 29  1  0
 29 30  2  0
 30 31  1  0
 31  6  1  0
 30  8  1  0
 23 15  1  0
 23 19  2  0
 28 20  1  0
M  END
>  <name>  (455) 
P116867

>  <alias>  (455) 
None

>  <smina_score_min>  (455) 
-9.25

>  <exports>  (455) 
['/opt/xchem-fragalysis-2/maxwin/BulkDock/OUTPUTS/openbind_xx01zvns2b_c2_elabs_1LOUTNY.sdf', '/opt/xchem-fragalysis-2/maxwin/BulkDock/OUTPUTS/openbind_xx01zvns2b_c2_elabs_1LSYIIV.sdf']

>  <tags>  (455) 
syndirella_placed,openbind_xx01zvns2b_c2_elabs,openbind_xx01zvns2b_c2_elabs_scored_6.2plus,syndirella_product,openbind_xx01zvns2b_c2_elabs_scored,openbind_xx01zvns2b_c2_elabs_scored_top80percent,BulkDock Fragalysis export

>  <subsites>  (455) 
1 - Z4590/B/203/1

>  <smiles>  (455) 
COCCCN1Cc2ccc(NC(=O)c3cccc4c5c([nH]c34)CCCCC5)cc2C1

>  <HIPPO Pose ID>  (455) 
116867

>  <energy_score>  (455) 
-42.92189

>  <inchikey>  (455) 
VAPDPIPHRGSOFB-UHFFFAOYSA-N

>  <gnina_score_min>  (455) 
6.228

>  <gnina_score>  (455) 
6.106

>  <ref_mols>  (455) 
Z3817a

>  <HIPPO Compound ID>  (455) 
180398

>  <distance_score>  (455) 
0.599251

>  <rmsd(smina/fragmenstein)>  (455) 
0.464

>  <ref_pdb>  (455) 
Z3817a

>  <inspiration_score>  (455) 
None

$$$$
P116868
     RDKit          3D

 31 35  0  0  0  0  0  0  0  0999 V2000
   -7.1948    6.2732  -13.9439 O   0  0  0  0  0  0  0  0  0  0  0  0
   -7.6218    5.1955  -14.0996 C   0  0  0  0  0  0  0  0  0  0  0  0
   -8.1348    4.1616  -13.0696 N   0  0  0  0  0  0  0  0  0  0  0  0
   -8.1416    4.1985  -11.6792 C   0  0  0  0  0  0  0  0  0  0  0  0
   -7.6723    5.3596  -11.0371 C   0  0  0  0  0  0  0  0  0  0  0  0
   -7.6847    5.4727   -9.6556 C   0  0  0  0  0  0  0  0  0  0  0  0
   -8.1853    4.4101   -8.9418 C   0  0  0  0  0  0  0  0  0  0  0  0
   -8.6530    3.2452   -9.5561 C   0  0  0  0  0  0  0  0  0  0  0  0
   -8.6223    3.1144  -10.9351 C   0  0  0  0  0  0  0  0  0  0  0  0
   -9.1637    2.3216   -8.4845 C   0  0  0  0  0  0  0  0  0  0  0  0
   -9.3392    3.2296   -7.3224 N   0  0  0  0  0  0  0  0  0  0  0  0
   -9.3047    2.5792   -6.0048 C   0  0  0  0  0  0  0  0  0  0  0  0
   -9.0381    3.5117   -4.7956 C   0  0  0  0  0  0  0  0  0  0  0  0
   -9.6898    4.6980   -4.9290 F   0  0  0  0  0  0  0  0  0  0  0  0
   -9.4357    3.0040   -3.6134 F   0  0  0  0  0  0  0  0  0  0  0  0
   -7.7164    3.8109   -4.6734 F   0  0  0  0  0  0  0  0  0  0  0  0
   -8.3397    4.2941   -7.4714 C   0  0  0  0  0  0  0  0  0  0  0  0
   -7.7235    4.7234  -15.4982 C   0  0  0  0  0  0  0  0  0  0  0  0
   -8.8734    4.1232  -16.0150 C   0  0  0  0  0  0  0  0  0  0  0  0
   -8.9668    3.8562  -17.3777 C   0  0  0  0  0  0  0  0  0  0  0  0
   -7.9250    4.1995  -18.2523 C   0  0  0  0  0  0  0  0  0  0  0  0
   -6.7596    4.8217  -17.7568 C   0  0  0  0  0  0  0  0  0  0  0  0
   -5.5732    5.3865  -18.3512 C   0  0  0  0  0  0  0  0  0  0  0  0
   -4.8047    5.8916  -17.3131 C   0  0  0  0  0  0  0  0  0  0  0  0
   -5.4813    5.6575  -16.1441 N   0  0  0  0  0  0  0  0  0  0  0  0
   -6.6871    5.0487  -16.3887 C   0  0  0  0  0  0  0  0  0  0  0  0
   -3.5260    6.6548  -17.2832 C   0  0  0  0  0  0  0  0  0  0  0  0
   -2.4922    6.1929  -18.2991 C   0  0  0  0  0  0  0  0  0  0  0  0
   -2.9054    6.4499  -19.7473 C   0  0  0  0  0  0  0  0  0  0  0  0
   -3.8647    5.3958  -20.2898 C   0  0  0  0  0  0  0  0  0  0  0  0
   -5.3138    5.5069  -19.8213 C   0  0  0  0  0  0  0  0  0  0  0  0
  1  2  2  0
  2  3  1  0
  3  4  1  0
  4  5  2  0
  5  6  1  0
  6  7  2  0
  7  8  1  0
  8  9  2  0
  8 10  1  0
 10 11  1  0
 11 12  1  0
 12 13  1  0
 13 14  1  0
 13 15  1  0
 13 16  1  0
 11 17  1  0
  2 18  1  0
 18 19  2  0
 19 20  1  0
 20 21  2  0
 21 22  1  0
 22 23  1  0
 23 24  2  0
 24 25  1  0
 25 26  1  0
 24 27  1  0
 27 28  1  0
 28 29  1  0
 29 30  1  0
 30 31  1  0
  9  4  1  0
 26 18  1  0
 17  7  1  0
 26 22  2  0
 31 23  1  0
M  END
>  <name>  (456) 
P116868

>  <alias>  (456) 
None

>  <smina_score_min>  (456) 
-10.341

>  <exports>  (456) 
['/opt/xchem-fragalysis-2/maxwin/BulkDock/OUTPUTS/openbind_xx01zvns2b_c2_elabs_1LOUTNY.sdf', '/opt/xchem-fragalysis-2/maxwin/BulkDock/OUTPUTS/openbind_xx01zvns2b_c2_elabs_1LSYIIV.sdf']

>  <tags>  (456) 
syndirella_placed,openbind_xx01zvns2b_c2_elabs,openbind_xx01zvns2b_c2_elabs_scored_6.2plus,syndirella_product,openbind_xx01zvns2b_c2_elabs_scored,openbind_xx01zvns2b_c2_elabs_scored_top80percent,BulkDock Fragalysis export

>  <subsites>  (456) 
1 - Z4590/B/203/1

>  <smiles>  (456) 
O=C(Nc1ccc2c(c1)CN(CC(F)(F)F)C2)c1cccc2c3c([nH]c12)CCCCC3

>  <HIPPO Pose ID>  (456) 
116868

>  <energy_score>  (456) 
-42.191508

>  <inchikey>  (456) 
GNLWWRXLWJUGAN-UHFFFAOYSA-N

>  <gnina_score_min>  (456) 
6.284

>  <gnina_score>  (456) 
6.088

>  <ref_mols>  (456) 
Z3817a

>  <HIPPO Compound ID>  (456) 
180399

>  <distance_score>  (456) 
0.650275

>  <rmsd(smina/fragmenstein)>  (456) 
0.941

>  <ref_pdb>  (456) 
Z3817a

>  <inspiration_score>  (456) 
None

$$$$
P116890
     RDKit          3D

 31 35  0  0  0  0  0  0  0  0999 V2000
   -8.7308    3.7462   -2.6951 C   0  0  0  0  0  0  0  0  0  0  0  0
   -8.6061    4.0790   -4.1858 C   0  0  0  0  0  0  0  0  0  0  0  0
   -8.2969    5.5831   -4.2651 C   0  0  0  0  0  0  0  0  0  0  0  0
   -9.9046    3.7241   -4.9497 C   0  0  0  0  0  0  0  0  0  0  0  0
   -9.8289    2.7261   -6.1317 C   0  0  0  0  0  0  0  0  0  0  0  0
   -8.8166    2.9710   -7.1436 N   0  0  0  0  0  0  0  0  0  0  0  0
   -8.5091    4.3614   -7.4376 C   0  0  0  0  0  0  0  0  0  0  0  0
   -8.3185    4.4363   -8.9032 C   0  0  0  0  0  0  0  0  0  0  0  0
   -7.9512    5.5473   -9.6286 C   0  0  0  0  0  0  0  0  0  0  0  0
   -7.8785    5.4142  -11.0042 C   0  0  0  0  0  0  0  0  0  0  0  0
   -8.1793    4.1927  -11.6321 C   0  0  0  0  0  0  0  0  0  0  0  0
   -8.0944    4.1339  -13.0190 N   0  0  0  0  0  0  0  0  0  0  0  0
   -7.5913    5.1814  -14.0399 C   0  0  0  0  0  0  0  0  0  0  0  0
   -7.0975    6.2282  -13.8713 O   0  0  0  0  0  0  0  0  0  0  0  0
   -7.7400    4.7400  -15.4436 C   0  0  0  0  0  0  0  0  0  0  0  0
   -8.9152    4.1740  -15.9432 C   0  0  0  0  0  0  0  0  0  0  0  0
   -9.0482    3.9284  -17.3084 C   0  0  0  0  0  0  0  0  0  0  0  0
   -8.0189    4.2532  -18.2036 C   0  0  0  0  0  0  0  0  0  0  0  0
   -6.8286    4.8307  -17.7218 C   0  0  0  0  0  0  0  0  0  0  0  0
   -5.6275    5.3164  -18.3158 C   0  0  0  0  0  0  0  0  0  0  0  0
   -4.7883    5.7024  -17.2904 C   0  0  0  0  0  0  0  0  0  0  0  0
   -5.4659    5.5856  -16.1154 N   0  0  0  0  0  0  0  0  0  0  0  0
   -6.7116    5.0419  -16.3493 C   0  0  0  0  0  0  0  0  0  0  0  0
   -3.3945    6.1913  -17.4232 C   0  0  0  0  0  0  0  0  0  0  0  0
   -2.8639    5.8300  -18.8213 C   0  0  0  0  0  0  0  0  0  0  0  0
   -3.8898    6.1666  -19.9316 C   0  0  1  0  0  0  0  0  0  0  0  0
   -3.2921    5.8913  -21.3088 C   0  0  0  0  0  0  0  0  0  0  0  0
   -5.2278    5.3983  -19.7518 C   0  0  0  0  0  0  0  0  0  0  0  0
   -8.5531    3.0729  -10.8768 C   0  0  0  0  0  0  0  0  0  0  0  0
   -8.6138    3.2129   -9.4968 C   0  0  0  0  0  0  0  0  0  0  0  0
   -9.0132    2.2390   -8.4230 C   0  0  0  0  0  0  0  0  0  0  0  0
  1  2  1  0
  2  3  1  0
  2  4  1  0
  4  5  1  0
  5  6  1  0
  6  7  1  0
  7  8  1  0
  8  9  2  0
  9 10  1  0
 10 11  2  0
 11 12  1  0
 12 13  1  0
 13 14  2  0
 13 15  1  0
 15 16  2  0
 16 17  1  0
 17 18  2  0
 18 19  1  0
 19 20  1  0
 20 21  2  0
 21 22  1  0
 22 23  1  0
 21 24  1  0
 24 25  1  0
 25 26  1  0
 26 27  1  6
 26 28  1  0
 11 29  1  0
 29 30  2  0
 30 31  1  0
 31  6  1  0
 30  8  1  0
 23 15  1  0
 23 19  2  0
 28 20  1  0
M  END
>  <name>  (457) 
P116890

>  <alias>  (457) 
None

>  <smina_score_min>  (457) 
-10.6

>  <exports>  (457) 
['/opt/xchem-fragalysis-2/maxwin/BulkDock/OUTPUTS/openbind_xx01zvns2b_c2_elabs_1LOUTNY.sdf', '/opt/xchem-fragalysis-2/maxwin/BulkDock/OUTPUTS/openbind_xx01zvns2b_c2_elabs_1LSYIIV.sdf']

>  <tags>  (457) 
syndirella_placed,openbind_xx01zvns2b_c2_elabs,openbind_xx01zvns2b_c2_elabs_scored_6.2plus,syndirella_product,openbind_xx01zvns2b_c2_elabs_scored,openbind_xx01zvns2b_c2_elabs_scored_top80percent,BulkDock Fragalysis export

>  <subsites>  (457) 
1 - Z4590/B/203/1

>  <smiles>  (457) 
CC(C)CCN1Cc2ccc(NC(=O)c3cccc4c5c([nH]c34)CC[C@@H](C)C5)cc2C1

>  <HIPPO Pose ID>  (457) 
116890

>  <energy_score>  (457) 
-39.900218

>  <inchikey>  (457) 
AFCMEXPRZZDTMJ-GOSISDBHSA-N

>  <gnina_score_min>  (457) 
6.426

>  <gnina_score>  (457) 
6.189

>  <ref_mols>  (457) 
Z3817a

>  <HIPPO Compound ID>  (457) 
180419

>  <distance_score>  (457) 
0.544543

>  <rmsd(smina/fragmenstein)>  (457) 
0.844

>  <ref_pdb>  (457) 
Z3817a

>  <inspiration_score>  (457) 
None

$$$$
P116893
     RDKit          3D

 31 35  0  0  0  0  0  0  0  0999 V2000
   -8.9893    4.2761   -2.3109 C   0  0  0  0  0  0  0  0  0  0  0  0
   -9.6613    3.6859   -3.4127 O   0  0  0  0  0  0  0  0  0  0  0  0
   -8.8452    3.6677   -4.5846 C   0  0  0  0  0  0  0  0  0  0  0  0
   -9.6141    3.0718   -5.7808 C   0  0  0  0  0  0  0  0  0  0  0  0
   -8.9785    3.3439   -7.0612 N   0  0  0  0  0  0  0  0  0  0  0  0
   -9.1123    2.4590   -8.2301 C   0  0  0  0  0  0  0  0  0  0  0  0
   -8.6626    3.3428   -9.3618 C   0  0  0  0  0  0  0  0  0  0  0  0
   -8.5689    3.1328  -10.7349 C   0  0  0  0  0  0  0  0  0  0  0  0
   -8.1682    4.2163  -11.5402 C   0  0  0  0  0  0  0  0  0  0  0  0
   -8.0777    4.1202  -12.9274 N   0  0  0  0  0  0  0  0  0  0  0  0
   -7.5252    5.1232  -13.9718 C   0  0  0  0  0  0  0  0  0  0  0  0
   -6.9897    6.1536  -13.8246 O   0  0  0  0  0  0  0  0  0  0  0  0
   -7.7053    4.6893  -15.3766 C   0  0  0  0  0  0  0  0  0  0  0  0
   -8.8975    4.1521  -15.8670 C   0  0  0  0  0  0  0  0  0  0  0  0
   -9.0600    3.9352  -17.2353 C   0  0  0  0  0  0  0  0  0  0  0  0
   -8.0436    4.2610  -18.1455 C   0  0  0  0  0  0  0  0  0  0  0  0
   -6.8371    4.8141  -17.6760 C   0  0  0  0  0  0  0  0  0  0  0  0
   -5.6422    5.3006  -18.2839 C   0  0  0  0  0  0  0  0  0  0  0  0
   -4.7850    5.6709  -17.2680 C   0  0  0  0  0  0  0  0  0  0  0  0
   -5.4429    5.5403  -16.0836 N   0  0  0  0  0  0  0  0  0  0  0  0
   -6.6935    4.9990  -16.3017 C   0  0  0  0  0  0  0  0  0  0  0  0
   -3.3955    6.1694  -17.4156 C   0  0  0  0  0  0  0  0  0  0  0  0
   -2.8884    5.8393  -18.8299 C   0  0  0  0  0  0  0  0  0  0  0  0
   -3.9370    6.1905  -19.9137 C   0  0  1  0  0  0  0  0  0  0  0  0
   -3.3642    5.9474  -21.3074 C   0  0  0  0  0  0  0  0  0  0  0  0
   -5.2650    5.4080  -19.7240 C   0  0  0  0  0  0  0  0  0  0  0  0
   -7.8619    5.4678  -10.9671 C   0  0  0  0  0  0  0  0  0  0  0  0
   -7.9714    5.6795   -9.6067 C   0  0  0  0  0  0  0  0  0  0  0  0
   -8.3713    4.6055   -8.8500 C   0  0  0  0  0  0  0  0  0  0  0  0
   -8.6497    4.6307   -7.4291 C   0  0  0  0  0  0  0  0  0  0  0  0
   -8.6329    5.6547   -6.7701 O   0  0  0  0  0  0  0  0  0  0  0  0
  1  2  1  0
  2  3  1  0
  3  4  1  0
  4  5  1  0
  5  6  1  0
  6  7  1  0
  7  8  2  0
  8  9  1  0
  9 10  1  0
 10 11  1  0
 11 12  2  0
 11 13  1  0
 13 14  2  0
 14 15  1  0
 15 16  2  0
 16 17  1  0
 17 18  1  0
 18 19  2  0
 19 20  1  0
 20 21  1  0
 19 22  1  0
 22 23  1  0
 23 24  1  0
 24 25  1  6
 24 26  1  0
  9 27  2  0
 27 28  1  0
 28 29  2  0
 29 30  1  0
 30 31  2  0
 30  5  1  0
 29  7  1  0
 21 13  1  0
 21 17  2  0
 26 18  1  0
M  END
>  <name>  (458) 
P116893

>  <alias>  (458) 
None

>  <smina_score_min>  (458) 
-9.912

>  <exports>  (458) 
['/opt/xchem-fragalysis-2/maxwin/BulkDock/OUTPUTS/openbind_xx01zvns2b_c2_elabs_1LOUTNY.sdf', '/opt/xchem-fragalysis-2/maxwin/BulkDock/OUTPUTS/openbind_xx01zvns2b_c2_elabs_1LSYIIV.sdf']

>  <tags>  (458) 
syndirella_placed,openbind_xx01zvns2b_c2_elabs,openbind_xx01zvns2b_c2_elabs_scored_6.2plus,syndirella_product,openbind_xx01zvns2b_c2_elabs_scored,openbind_xx01zvns2b_c2_elabs_scored_top80percent,BulkDock Fragalysis export

>  <subsites>  (458) 
1 - Z4590/B/203/1

>  <smiles>  (458) 
COCCN1Cc2cc(NC(=O)c3cccc4c5c([nH]c34)CC[C@@H](C)C5)ccc2C1=O

>  <HIPPO Pose ID>  (458) 
116893

>  <energy_score>  (458) 
-70.405072

>  <inchikey>  (458) 
LQTCYPIHKKBTTG-OAHLLOKOSA-N

>  <gnina_score_min>  (458) 
6.25

>  <gnina_score>  (458) 
6.134

>  <ref_mols>  (458) 
Z3817a

>  <HIPPO Compound ID>  (458) 
180423

>  <distance_score>  (458) 
0.601175

>  <rmsd(smina/fragmenstein)>  (458) 
0.835

>  <ref_pdb>  (458) 
Z3817a

>  <inspiration_score>  (458) 
None

$$$$
P116895
     RDKit          3D

 31 35  0  0  0  0  0  0  0  0999 V2000
   -4.1873    7.6579  -20.0069 C   0  0  0  0  0  0  0  0  0  0  0  0
   -3.9618    6.1459  -19.8846 C   0  0  1  0  0  0  0  0  0  0  0  0
   -2.9264    5.8196  -18.7785 C   0  0  0  0  0  0  0  0  0  0  0  0
   -3.4201    6.1588  -17.3591 C   0  0  0  0  0  0  0  0  0  0  0  0
   -4.8196    5.6880  -17.2056 C   0  0  0  0  0  0  0  0  0  0  0  0
   -5.4843    5.5783  -16.0203 N   0  0  0  0  0  0  0  0  0  0  0  0
   -6.7408    5.0503  -16.2380 C   0  0  0  0  0  0  0  0  0  0  0  0
   -7.7633    4.7532  -15.3212 C   0  0  0  0  0  0  0  0  0  0  0  0
   -7.6048    5.1690  -13.9050 C   0  0  0  0  0  0  0  0  0  0  0  0
   -7.0909    6.2023  -13.7144 O   0  0  0  0  0  0  0  0  0  0  0  0
   -8.1313    4.1103  -12.9051 N   0  0  0  0  0  0  0  0  0  0  0  0
   -8.2183    4.1432  -11.5146 C   0  0  0  0  0  0  0  0  0  0  0  0
   -7.9362    5.3432  -10.8386 C   0  0  0  0  0  0  0  0  0  0  0  0
   -7.9685    5.4108   -9.4491 C   0  0  0  0  0  0  0  0  0  0  0  0
   -8.2791    4.2598   -8.7565 C   0  0  0  0  0  0  0  0  0  0  0  0
   -8.5704    3.0643   -9.4099 C   0  0  0  0  0  0  0  0  0  0  0  0
   -8.5522    2.9884  -10.7964 C   0  0  0  0  0  0  0  0  0  0  0  0
   -8.8091    1.9988   -8.3790 C   0  0  0  0  0  0  0  0  0  0  0  0
   -8.9282    2.7313   -7.0710 N   0  0  0  0  0  0  0  0  0  0  0  0
  -10.3463    2.8626   -6.6773 C   0  0  0  0  0  0  0  0  0  0  0  0
  -10.8537    1.8479   -5.6642 C   0  0  0  0  0  0  0  0  0  0  0  0
  -10.3261    2.0991   -4.4517 F   0  0  0  0  0  0  0  0  0  0  0  0
  -10.5716    0.5972   -6.0596 F   0  0  0  0  0  0  0  0  0  0  0  0
  -12.1960    1.9417   -5.5033 F   0  0  0  0  0  0  0  0  0  0  0  0
   -8.3014    4.0493   -7.2845 C   0  0  0  0  0  0  0  0  0  0  0  0
   -8.9489    4.2059  -15.8211 C   0  0  0  0  0  0  0  0  0  0  0  0
   -9.1016    3.9750  -17.1878 C   0  0  0  0  0  0  0  0  0  0  0  0
   -8.0789    4.2935  -18.0900 C   0  0  0  0  0  0  0  0  0  0  0  0
   -6.8768    4.8487  -17.6121 C   0  0  0  0  0  0  0  0  0  0  0  0
   -5.6787    5.3206  -18.2206 C   0  0  0  0  0  0  0  0  0  0  0  0
   -5.3061    5.4030  -19.6637 C   0  0  0  0  0  0  0  0  0  0  0  0
  2  1  1  1
  2  3  1  0
  3  4  1  0
  4  5  1  0
  5  6  1  0
  6  7  1  0
  7  8  2  0
  8  9  1  0
  9 10  2  0
  9 11  1  0
 11 12  1  0
 12 13  2  0
 13 14  1  0
 14 15  2  0
 15 16  1  0
 16 17  2  0
 16 18  1  0
 18 19  1  0
 19 20  1  0
 20 21  1  0
 21 22  1  0
 21 23  1  0
 21 24  1  0
 19 25  1  0
  8 26  1  0
 26 27  2  0
 27 28  1  0
 28 29  2  0
 29 30  1  0
 30 31  1  0
 31  2  1  0
 30  5  2  0
 29  7  1  0
 17 12  1  0
 25 15  1  0
M  END
>  <name>  (459) 
P116895

>  <alias>  (459) 
None

>  <smina_score_min>  (459) 
-9.988

>  <exports>  (459) 
['/opt/xchem-fragalysis-2/maxwin/BulkDock/OUTPUTS/openbind_xx01zvns2b_c2_elabs_1LOUTNY.sdf', '/opt/xchem-fragalysis-2/maxwin/BulkDock/OUTPUTS/openbind_xx01zvns2b_c2_elabs_1LSYIIV.sdf']

>  <tags>  (459) 
syndirella_placed,openbind_xx01zvns2b_c2_elabs,openbind_xx01zvns2b_c2_elabs_scored_6.2plus,syndirella_product,openbind_xx01zvns2b_c2_elabs_scored,openbind_xx01zvns2b_c2_elabs_scored_top80percent,BulkDock Fragalysis export

>  <subsites>  (459) 
1 - Z4590/B/203/1

>  <smiles>  (459) 
C[C@H]1CCc2[nH]c3c(C(=O)Nc4ccc5c(c4)CN(CC(F)(F)F)C5)cccc3c2C1

>  <HIPPO Pose ID>  (459) 
116895

>  <energy_score>  (459) 
-45.702182

>  <inchikey>  (459) 
ALWPZIQRWFMHDW-AWEZNQCLSA-N

>  <gnina_score_min>  (459) 
6.267

>  <gnina_score>  (459) 
6.168

>  <ref_mols>  (459) 
Z3817a

>  <HIPPO Compound ID>  (459) 
180424

>  <distance_score>  (459) 
0.444346

>  <rmsd(smina/fragmenstein)>  (459) 
0.48

>  <ref_pdb>  (459) 
Z3817a

>  <inspiration_score>  (459) 
None

$$$$
P116897
     RDKit          3D

 31 35  0  0  0  0  0  0  0  0999 V2000
   -8.2685    5.7269   -3.9335 C   0  0  0  0  0  0  0  0  0  0  0  0
   -9.2496    4.9894   -4.6475 O   0  0  0  0  0  0  0  0  0  0  0  0
   -9.1224    3.5812   -4.4160 C   0  0  0  0  0  0  0  0  0  0  0  0
  -10.1797    2.8128   -5.2111 C   0  0  0  0  0  0  0  0  0  0  0  0
   -9.6248    2.0064   -6.3908 C   0  0  0  0  0  0  0  0  0  0  0  0
   -9.5487    2.7832   -7.6078 N   0  0  0  0  0  0  0  0  0  0  0  0
   -8.6670    3.9562   -7.5604 C   0  0  0  0  0  0  0  0  0  0  0  0
   -8.3383    4.1884   -8.9957 C   0  0  0  0  0  0  0  0  0  0  0  0
   -7.8726    5.3301   -9.6097 C   0  0  0  0  0  0  0  0  0  0  0  0
   -7.7286    5.3009  -10.9941 C   0  0  0  0  0  0  0  0  0  0  0  0
   -8.0488    4.1450  -11.7282 C   0  0  0  0  0  0  0  0  0  0  0  0
   -7.9611    4.1429  -13.1123 N   0  0  0  0  0  0  0  0  0  0  0  0
   -7.5533    5.2605  -14.0909 C   0  0  0  0  0  0  0  0  0  0  0  0
   -7.1522    6.3373  -13.8855 O   0  0  0  0  0  0  0  0  0  0  0  0
   -7.6998    4.8284  -15.4959 C   0  0  0  0  0  0  0  0  0  0  0  0
   -8.8716    4.2447  -15.9880 C   0  0  0  0  0  0  0  0  0  0  0  0
   -8.9970    3.9682  -17.3462 C   0  0  0  0  0  0  0  0  0  0  0  0
   -7.9625    4.2797  -18.2394 C   0  0  0  0  0  0  0  0  0  0  0  0
   -6.7752    4.8700  -17.7630 C   0  0  0  0  0  0  0  0  0  0  0  0
   -5.5716    5.3458  -18.3586 C   0  0  0  0  0  0  0  0  0  0  0  0
   -4.7358    5.7438  -17.3345 C   0  0  0  0  0  0  0  0  0  0  0  0
   -5.4198    5.6524  -16.1605 N   0  0  0  0  0  0  0  0  0  0  0  0
   -6.6651    5.1112  -16.3948 C   0  0  0  0  0  0  0  0  0  0  0  0
   -3.3412    6.2316  -17.4676 C   0  0  0  0  0  0  0  0  0  0  0  0
   -2.8073    5.8596  -18.8618 C   0  0  0  0  0  0  0  0  0  0  0  0
   -3.8315    6.1853  -19.9769 C   0  0  1  0  0  0  0  0  0  0  0  0
   -3.2301    5.9015  -21.3507 C   0  0  0  0  0  0  0  0  0  0  0  0
   -5.1668    5.4136  -19.7936 C   0  0  0  0  0  0  0  0  0  0  0  0
   -8.4842    2.9858  -11.0875 C   0  0  0  0  0  0  0  0  0  0  0  0
   -8.6289    3.0295   -9.7182 C   0  0  0  0  0  0  0  0  0  0  0  0
   -9.1320    1.9852   -8.7758 C   0  0  0  0  0  0  0  0  0  0  0  0
  1  2  1  0
  2  3  1  0
  3  4  1  0
  4  5  1  0
  5  6  1  0
  6  7  1  0
  7  8  1  0
  8  9  2  0
  9 10  1  0
 10 11  2  0
 11 12  1  0
 12 13  1  0
 13 14  2  0
 13 15  1  0
 15 16  2  0
 16 17  1  0
 17 18  2  0
 18 19  1  0
 19 20  1  0
 20 21  2  0
 21 22  1  0
 22 23  1  0
 21 24  1  0
 24 25  1  0
 25 26  1  0
 26 27  1  6
 26 28  1  0
 11 29  1  0
 29 30  2  0
 30 31  1  0
 31  6  1  0
 30  8  1  0
 23 15  1  0
 23 19  2  0
 28 20  1  0
M  END
>  <name>  (460) 
P116897

>  <alias>  (460) 
None

>  <smina_score_min>  (460) 
-9.851

>  <exports>  (460) 
['/opt/xchem-fragalysis-2/maxwin/BulkDock/OUTPUTS/openbind_xx01zvns2b_c2_elabs_1LOUTNY.sdf', '/opt/xchem-fragalysis-2/maxwin/BulkDock/OUTPUTS/openbind_xx01zvns2b_c2_elabs_1LSYIIV.sdf']

>  <tags>  (460) 
syndirella_placed,openbind_xx01zvns2b_c2_elabs,openbind_xx01zvns2b_c2_elabs_scored_6.2plus,syndirella_product,openbind_xx01zvns2b_c2_elabs_scored,openbind_xx01zvns2b_c2_elabs_scored_top80percent,BulkDock Fragalysis export

>  <subsites>  (460) 
1 - Z4590/B/203/1

>  <smiles>  (460) 
COCCCN1Cc2ccc(NC(=O)c3cccc4c5c([nH]c34)CC[C@@H](C)C5)cc2C1

>  <HIPPO Pose ID>  (460) 
116897

>  <energy_score>  (460) 
-27.085113

>  <inchikey>  (460) 
BTDVFAJOLGPPML-QGZVFWFLSA-N

>  <gnina_score_min>  (460) 
6.348

>  <gnina_score>  (460) 
6.127

>  <ref_mols>  (460) 
Z3817a

>  <HIPPO Compound ID>  (460) 
180425

>  <distance_score>  (460) 
0.570117

>  <rmsd(smina/fragmenstein)>  (460) 
0.797

>  <ref_pdb>  (460) 
Z3817a

>  <inspiration_score>  (460) 
None

$$$$
P116899
     RDKit          3D

 31 35  0  0  0  0  0  0  0  0999 V2000
   -8.0835    4.7514   -3.7381 C   0  0  0  0  0  0  0  0  0  0  0  0
   -9.2750    3.8184   -3.6128 C   0  0  0  0  0  0  0  0  0  0  0  0
   -9.9854    3.4954   -4.9360 C   0  0  0  0  0  0  0  0  0  0  0  0
   -9.1779    2.6232   -5.9049 C   0  0  0  0  0  0  0  0  0  0  0  0
   -9.1033    3.1668   -7.2406 N   0  0  0  0  0  0  0  0  0  0  0  0
   -9.0784    2.3025   -8.4234 C   0  0  0  0  0  0  0  0  0  0  0  0
   -8.6607    3.2527   -9.5018 C   0  0  0  0  0  0  0  0  0  0  0  0
   -8.6062    3.1114  -10.8805 C   0  0  0  0  0  0  0  0  0  0  0  0
   -8.1969    4.2216  -11.6356 C   0  0  0  0  0  0  0  0  0  0  0  0
   -8.1776    4.1718  -13.0254 N   0  0  0  0  0  0  0  0  0  0  0  0
   -7.6868    5.2104  -14.0611 C   0  0  0  0  0  0  0  0  0  0  0  0
   -7.2933    6.3014  -13.9124 O   0  0  0  0  0  0  0  0  0  0  0  0
   -7.7870    4.7338  -15.4555 C   0  0  0  0  0  0  0  0  0  0  0  0
   -8.9510    4.1602  -15.9719 C   0  0  0  0  0  0  0  0  0  0  0  0
   -9.0600    3.9057  -17.3365 C   0  0  0  0  0  0  0  0  0  0  0  0
   -8.0176    4.2310  -18.2152 C   0  0  0  0  0  0  0  0  0  0  0  0
   -6.8369    4.8143  -17.7166 C   0  0  0  0  0  0  0  0  0  0  0  0
   -5.6321    5.3078  -18.2956 C   0  0  0  0  0  0  0  0  0  0  0  0
   -4.8092    5.6994  -17.2594 C   0  0  0  0  0  0  0  0  0  0  0  0
   -5.5038    5.5867  -16.0928 N   0  0  0  0  0  0  0  0  0  0  0  0
   -6.7417    5.0323  -16.3428 C   0  0  0  0  0  0  0  0  0  0  0  0
   -3.4170    6.1990  -17.3753 C   0  0  0  0  0  0  0  0  0  0  0  0
   -2.8658    5.8359  -18.7652 C   0  0  0  0  0  0  0  0  0  0  0  0
   -3.8772    6.1661  -19.8906 C   0  0  1  0  0  0  0  0  0  0  0  0
   -3.2618    5.8843  -21.2590 C   0  0  0  0  0  0  0  0  0  0  0  0
   -5.2169    5.3979  -19.7262 C   0  0  0  0  0  0  0  0  0  0  0  0
   -7.8228    5.4270  -11.0071 C   0  0  0  0  0  0  0  0  0  0  0  0
   -7.8765    5.5634   -9.6298 C   0  0  0  0  0  0  0  0  0  0  0  0
   -8.3041    4.4675   -8.9203 C   0  0  0  0  0  0  0  0  0  0  0  0
   -8.5100    4.3885   -7.4850 C   0  0  0  0  0  0  0  0  0  0  0  0
   -8.2006    5.2781   -6.7143 O   0  0  0  0  0  0  0  0  0  0  0  0
  1  2  1  0
  2  3  1  0
  3  4  1  0
  4  5  1  0
  5  6  1  0
  6  7  1  0
  7  8  2  0
  8  9  1  0
  9 10  1  0
 10 11  1  0
 11 12  2  0
 11 13  1  0
 13 14  2  0
 14 15  1  0
 15 16  2  0
 16 17  1  0
 17 18  1  0
 18 19  2  0
 19 20  1  0
 20 21  1  0
 19 22  1  0
 22 23  1  0
 23 24  1  0
 24 25  1  6
 24 26  1  0
  9 27  2  0
 27 28  1  0
 28 29  2  0
 29 30  1  0
 30 31  2  0
 30  5  1  0
 29  7  1  0
 21 13  1  0
 21 17  2  0
 26 18  1  0
M  END
>  <name>  (461) 
P116899

>  <alias>  (461) 
None

>  <smina_score_min>  (461) 
-10.22

>  <exports>  (461) 
['/opt/xchem-fragalysis-2/maxwin/BulkDock/OUTPUTS/openbind_xx01zvns2b_c2_elabs_1LOUTNY.sdf', '/opt/xchem-fragalysis-2/maxwin/BulkDock/OUTPUTS/openbind_xx01zvns2b_c2_elabs_1LSYIIV.sdf']

>  <tags>  (461) 
syndirella_placed,openbind_xx01zvns2b_c2_elabs,openbind_xx01zvns2b_c2_elabs_scored_6.2plus,syndirella_product,openbind_xx01zvns2b_c2_elabs_scored,openbind_xx01zvns2b_c2_elabs_scored_top80percent,BulkDock Fragalysis export

>  <subsites>  (461) 
1 - Z4590/B/203/1

>  <smiles>  (461) 
CCCCN1Cc2cc(NC(=O)c3cccc4c5c([nH]c34)CC[C@@H](C)C5)ccc2C1=O

>  <HIPPO Pose ID>  (461) 
116899

>  <energy_score>  (461) 
-49.263198

>  <inchikey>  (461) 
OUMNEVGHRVJLNV-MRXNPFEDSA-N

>  <gnina_score_min>  (461) 
6.376

>  <gnina_score>  (461) 
6.174

>  <ref_mols>  (461) 
Z3817a

>  <HIPPO Compound ID>  (461) 
180426

>  <distance_score>  (461) 
0.584248

>  <rmsd(smina/fragmenstein)>  (461) 
0.832

>  <ref_pdb>  (461) 
Z3817a

>  <inspiration_score>  (461) 
None

$$$$
P116907
     RDKit          3D

 32 36  0  0  0  0  0  0  0  0999 V2000
   -7.3979    6.9771   -4.9300 C   0  0  0  0  0  0  0  0  0  0  0  0
   -8.5248    6.1206   -4.3872 C   0  0  0  0  0  0  0  0  0  0  0  0
   -8.0959    4.7614   -4.3793 O   0  0  0  0  0  0  0  0  0  0  0  0
   -9.0996    3.8625   -3.9066 C   0  0  0  0  0  0  0  0  0  0  0  0
  -10.0415    3.3569   -5.0023 C   0  0  0  0  0  0  0  0  0  0  0  0
   -9.3780    2.4701   -6.0702 C   0  0  0  0  0  0  0  0  0  0  0  0
   -9.4361    3.1026   -7.3747 N   0  0  0  0  0  0  0  0  0  0  0  0
   -8.5312    4.2570   -7.4658 C   0  0  0  0  0  0  0  0  0  0  0  0
   -8.2948    4.3894   -8.9259 C   0  0  0  0  0  0  0  0  0  0  0  0
   -7.8494    5.4919   -9.6167 C   0  0  0  0  0  0  0  0  0  0  0  0
   -7.7646    5.3839  -10.9967 C   0  0  0  0  0  0  0  0  0  0  0  0
   -8.1153    4.1910  -11.6564 C   0  0  0  0  0  0  0  0  0  0  0  0
   -8.0433    4.1484  -13.0430 N   0  0  0  0  0  0  0  0  0  0  0  0
   -7.5281    5.1967  -14.0535 C   0  0  0  0  0  0  0  0  0  0  0  0
   -7.0118    6.2303  -13.8762 O   0  0  0  0  0  0  0  0  0  0  0  0
   -7.6991    4.7649  -15.4582 C   0  0  0  0  0  0  0  0  0  0  0  0
   -8.8808    4.2010  -15.9464 C   0  0  0  0  0  0  0  0  0  0  0  0
   -9.0253    3.9501  -17.3092 C   0  0  0  0  0  0  0  0  0  0  0  0
   -8.0007    4.2674  -18.2128 C   0  0  0  0  0  0  0  0  0  0  0  0
   -6.8034    4.8412  -17.7427 C   0  0  0  0  0  0  0  0  0  0  0  0
   -5.6036    5.3209  -18.3453 C   0  0  0  0  0  0  0  0  0  0  0  0
   -4.7566    5.7058  -17.3257 C   0  0  0  0  0  0  0  0  0  0  0  0
   -5.4272    5.5961  -16.1463 N   0  0  0  0  0  0  0  0  0  0  0  0
   -6.6764    5.0575  -16.3721 C   0  0  0  0  0  0  0  0  0  0  0  0
   -3.3641    6.1979  -17.4655 C   0  0  0  0  0  0  0  0  0  0  0  0
   -2.8438    5.8483  -18.8702 C   0  0  0  0  0  0  0  0  0  0  0  0
   -3.8811    6.1869  -19.9690 C   0  0  1  0  0  0  0  0  0  0  0  0
   -3.2935    5.9269  -21.3534 C   0  0  0  0  0  0  0  0  0  0  0  0
   -5.2114    5.4070  -19.7829 C   0  0  0  0  0  0  0  0  0  0  0  0
   -8.5408    3.0700  -10.9360 C   0  0  0  0  0  0  0  0  0  0  0  0
   -8.6310    3.1906   -9.5608 C   0  0  0  0  0  0  0  0  0  0  0  0
   -9.0911    2.2173   -8.5133 C   0  0  0  0  0  0  0  0  0  0  0  0
  1  2  1  0
  2  3  1  0
  3  4  1  0
  4  5  1  0
  5  6  1  0
  6  7  1  0
  7  8  1  0
  8  9  1  0
  9 10  2  0
 10 11  1  0
 11 12  2  0
 12 13  1  0
 13 14  1  0
 14 15  2  0
 14 16  1  0
 16 17  2  0
 17 18  1  0
 18 19  2  0
 19 20  1  0
 20 21  1  0
 21 22  2  0
 22 23  1  0
 23 24  1  0
 22 25  1  0
 25 26  1  0
 26 27  1  0
 27 28  1  6
 27 29  1  0
 12 30  1  0
 30 31  2  0
 31 32  1  0
 32  7  1  0
 31  9  1  0
 24 16  1  0
 24 20  2  0
 29 21  1  0
M  END
>  <name>  (462) 
P116907

>  <alias>  (462) 
None

>  <smina_score_min>  (462) 
-9.642

>  <exports>  (462) 
['/opt/xchem-fragalysis-2/maxwin/BulkDock/OUTPUTS/openbind_xx01zvns2b_c2_elabs_1LOUTNY.sdf', '/opt/xchem-fragalysis-2/maxwin/BulkDock/OUTPUTS/openbind_xx01zvns2b_c2_elabs_1LSYIIV.sdf']

>  <tags>  (462) 
syndirella_placed,openbind_xx01zvns2b_c2_elabs,openbind_xx01zvns2b_c2_elabs_scored_6.2plus,syndirella_product,openbind_xx01zvns2b_c2_elabs_scored,openbind_xx01zvns2b_c2_elabs_scored_top80percent,BulkDock Fragalysis export

>  <subsites>  (462) 
1 - Z4590/B/203/1

>  <smiles>  (462) 
CCOCCCN1Cc2ccc(NC(=O)c3cccc4c5c([nH]c34)CC[C@@H](C)C5)cc2C1

>  <HIPPO Pose ID>  (462) 
116907

>  <energy_score>  (462) 
-37.095062

>  <inchikey>  (462) 
ZQHUKCRZTKRWQN-GOSISDBHSA-N

>  <gnina_score_min>  (462) 
6.32

>  <gnina_score>  (462) 
6.189

>  <ref_mols>  (462) 
Z3817a

>  <HIPPO Compound ID>  (462) 
180432

>  <distance_score>  (462) 
0.574224

>  <rmsd(smina/fragmenstein)>  (462) 
0.968

>  <ref_pdb>  (462) 
Z3817a

>  <inspiration_score>  (462) 
None

$$$$
P116912
     RDKit          3D

 32 36  0  0  0  0  0  0  0  0999 V2000
   -8.9399    4.9171   -0.9428 C   0  0  0  0  0  0  0  0  0  0  0  0
   -9.2351    4.7882   -2.4241 C   0  0  0  0  0  0  0  0  0  0  0  0
   -8.2597    3.9323   -3.0001 O   0  0  0  0  0  0  0  0  0  0  0  0
   -8.3408    3.8281   -4.4257 C   0  0  0  0  0  0  0  0  0  0  0  0
   -9.6332    3.1812   -4.9334 C   0  0  0  0  0  0  0  0  0  0  0  0
   -9.4584    2.3248   -6.1988 C   0  0  0  0  0  0  0  0  0  0  0  0
   -9.4412    3.0794   -7.4363 N   0  0  0  0  0  0  0  0  0  0  0  0
   -8.4645    4.1672   -7.5093 C   0  0  0  0  0  0  0  0  0  0  0  0
   -8.2615    4.3511   -8.9702 C   0  0  0  0  0  0  0  0  0  0  0  0
   -7.7761    5.4505   -9.6399 C   0  0  0  0  0  0  0  0  0  0  0  0
   -7.7372    5.3861  -11.0271 C   0  0  0  0  0  0  0  0  0  0  0  0
   -8.1633    4.2339  -11.7127 C   0  0  0  0  0  0  0  0  0  0  0  0
   -8.1612    4.2288  -13.1014 N   0  0  0  0  0  0  0  0  0  0  0  0
   -7.5719    5.2412  -14.1073 C   0  0  0  0  0  0  0  0  0  0  0  0
   -7.0627    6.2778  -13.9285 O   0  0  0  0  0  0  0  0  0  0  0  0
   -7.7120    4.7840  -15.5090 C   0  0  0  0  0  0  0  0  0  0  0  0
   -8.8760    4.1868  -16.0036 C   0  0  0  0  0  0  0  0  0  0  0  0
   -8.9920    3.8960  -17.3598 C   0  0  0  0  0  0  0  0  0  0  0  0
   -7.9558    4.2043  -18.2512 C   0  0  0  0  0  0  0  0  0  0  0  0
   -6.7783    4.8173  -17.7770 C   0  0  0  0  0  0  0  0  0  0  0  0
   -5.5800    5.3133  -18.3887 C   0  0  0  0  0  0  0  0  0  0  0  0
   -4.7811    5.8160  -17.3731 C   0  0  0  0  0  0  0  0  0  0  0  0
   -5.4606    5.6671  -16.1952 N   0  0  0  0  0  0  0  0  0  0  0  0
   -6.6832    5.0786  -16.4153 C   0  0  0  0  0  0  0  0  0  0  0  0
   -3.4382    6.4638  -17.4237 C   0  0  0  0  0  0  0  0  0  0  0  0
   -3.3272    7.4074  -18.6215 C   0  0  0  0  0  0  0  0  0  0  0  0
   -3.0926    6.7127  -19.9669 C   0  0  0  0  0  0  0  0  0  0  0  0
   -3.7805    5.3620  -20.1853 C   0  0  0  0  0  0  0  0  0  0  0  0
   -5.2748    5.3298  -19.8563 C   0  0  0  0  0  0  0  0  0  0  0  0
   -8.6203    3.1130  -11.0161 C   0  0  0  0  0  0  0  0  0  0  0  0
   -8.6789    3.1982   -9.6385 C   0  0  0  0  0  0  0  0  0  0  0  0
   -9.1929    2.2219   -8.6251 C   0  0  0  0  0  0  0  0  0  0  0  0
  1  2  1  0
  2  3  1  0
  3  4  1  0
  4  5  1  0
  5  6  1  0
  6  7  1  0
  7  8  1  0
  8  9  1  0
  9 10  2  0
 10 11  1  0
 11 12  2  0
 12 13  1  0
 13 14  1  0
 14 15  2  0
 14 16  1  0
 16 17  2  0
 17 18  1  0
 18 19  2  0
 19 20  1  0
 20 21  1  0
 21 22  2  0
 22 23  1  0
 23 24  1  0
 22 25  1  0
 25 26  1  0
 26 27  1  0
 27 28  1  0
 28 29  1  0
 12 30  1  0
 30 31  2  0
 31 32  1  0
 32  7  1  0
 31  9  1  0
 24 16  1  0
 24 20  2  0
 29 21  1  0
M  END
>  <name>  (463) 
P116912

>  <alias>  (463) 
None

>  <smina_score_min>  (463) 
-9.781

>  <exports>  (463) 
['/opt/xchem-fragalysis-2/maxwin/BulkDock/OUTPUTS/openbind_xx01zvns2b_c2_elabs_1LOUTNY.sdf', '/opt/xchem-fragalysis-2/maxwin/BulkDock/OUTPUTS/openbind_xx01zvns2b_c2_elabs_1LSYIIV.sdf']

>  <tags>  (463) 
syndirella_placed,openbind_xx01zvns2b_c2_elabs,openbind_xx01zvns2b_c2_elabs_scored_6.2plus,syndirella_product,openbind_xx01zvns2b_c2_elabs_scored,openbind_xx01zvns2b_c2_elabs_scored_top80percent,BulkDock Fragalysis export

>  <subsites>  (463) 
1 - Z4590/B/203/1

>  <smiles>  (463) 
CCOCCCN1Cc2ccc(NC(=O)c3cccc4c5c([nH]c34)CCCCC5)cc2C1

>  <HIPPO Pose ID>  (463) 
116912

>  <energy_score>  (463) 
-18.498647

>  <inchikey>  (463) 
XCFDEEOYAZNCOB-UHFFFAOYSA-N

>  <gnina_score_min>  (463) 
6.328

>  <gnina_score>  (463) 
6.058

>  <ref_mols>  (463) 
Z3817a

>  <HIPPO Compound ID>  (463) 
180439

>  <distance_score>  (463) 
0.613249

>  <rmsd(smina/fragmenstein)>  (463) 
0.981

>  <ref_pdb>  (463) 
Z3817a

>  <inspiration_score>  (463) 
None

$$$$
P116920
     RDKit          3D

 33 38  0  0  0  0  0  0  0  0999 V2000
  -12.0442    2.4122   -4.3095 O   0  0  0  0  0  0  0  0  0  0  0  0
  -11.0896    2.2385   -5.0420 C   0  0  0  0  0  0  0  0  0  0  0  0
  -10.1089    3.2652   -5.4945 C   0  0  0  0  0  0  0  0  0  0  0  0
   -9.2304    2.4705   -6.4535 C   0  0  2  0  0  0  0  0  0  0  0  0
   -8.9790    3.1355   -7.6999 N   0  0  0  0  0  0  0  0  0  0  0  0
   -8.8815    2.3862   -8.9442 C   0  0  0  0  0  0  0  0  0  0  0  0
   -8.4295    3.4297   -9.8822 C   0  0  0  0  0  0  0  0  0  0  0  0
   -8.3490    3.3528  -11.2496 C   0  0  0  0  0  0  0  0  0  0  0  0
   -7.9592    4.5031  -11.9208 C   0  0  0  0  0  0  0  0  0  0  0  0
   -7.9422    4.4502  -13.2982 N   0  0  0  0  0  0  0  0  0  0  0  0
   -7.4884    5.4897  -14.3297 C   0  0  0  0  0  0  0  0  0  0  0  0
   -7.1273    6.5879  -14.1871 O   0  0  0  0  0  0  0  0  0  0  0  0
   -7.6247    4.9521  -15.6952 C   0  0  0  0  0  0  0  0  0  0  0  0
   -8.7985    4.3292  -16.1395 C   0  0  0  0  0  0  0  0  0  0  0  0
   -8.9282    3.9609  -17.4727 C   0  0  0  0  0  0  0  0  0  0  0  0
   -7.8992    4.2233  -18.3857 C   0  0  0  0  0  0  0  0  0  0  0  0
   -6.7108    4.8454  -17.9538 C   0  0  0  0  0  0  0  0  0  0  0  0
   -5.5156    5.2897  -18.5850 C   0  0  0  0  0  0  0  0  0  0  0  0
   -4.6595    5.7181  -17.5901 C   0  0  0  0  0  0  0  0  0  0  0  0
   -5.3356    5.7058  -16.4078 N   0  0  0  0  0  0  0  0  0  0  0  0
   -6.5884    5.1680  -16.6047 C   0  0  0  0  0  0  0  0  0  0  0  0
   -3.2518    6.1537  -17.7671 C   0  0  0  0  0  0  0  0  0  0  0  0
   -2.7458    5.6642  -19.1373 C   0  0  0  0  0  0  0  0  0  0  0  0
   -3.7610    5.9544  -20.2584 C   0  0  0  0  0  0  0  0  0  0  0  0
   -5.1347    5.2897  -20.0272 C   0  0  0  0  0  0  0  0  0  0  0  0
   -7.6340    5.6863  -11.2273 C   0  0  0  0  0  0  0  0  0  0  0  0
   -7.7216    5.7476   -9.8376 C   0  0  0  0  0  0  0  0  0  0  0  0
   -8.1292    4.6036   -9.1969 C   0  0  0  0  0  0  0  0  0  0  0  0
   -8.4046    4.3838   -7.7792 C   0  0  0  0  0  0  0  0  0  0  0  0
   -8.1861    5.1783   -6.8845 O   0  0  0  0  0  0  0  0  0  0  0  0
  -10.0106    1.1941   -6.6447 C   0  0  0  0  0  0  0  0  0  0  0  0
   -9.9934    0.4224   -7.5856 O   0  0  0  0  0  0  0  0  0  0  0  0
  -10.8369    1.0599   -5.6074 N   0  0  0  0  0  0  0  0  0  0  0  0
  1  2  2  0
  2  3  1  0
  3  4  1  0
  4  5  1  6
  5  6  1  0
  6  7  1  0
  7  8  2  0
  8  9  1  0
  9 10  1  0
 10 11  1  0
 11 12  2  0
 11 13  1  0
 13 14  2  0
 14 15  1  0
 15 16  2  0
 16 17  1  0
 17 18  1  0
 18 19  2  0
 19 20  1  0
 20 21  1  0
 19 22  1  0
 22 23  1  0
 23 24  1  0
 24 25  1  0
  9 26  2  0
 26 27  1  0
 27 28  2  0
 28 29  1  0
 29 30  2  0
  4 31  1  0
 31 32  2  0
 31 33  1  0
 33  2  1  0
 29  5  1  0
 28  7  1  0
 21 13  1  0
 21 17  2  0
 25 18  1  0
M  END
>  <name>  (464) 
P116920

>  <alias>  (464) 
None

>  <smina_score_min>  (464) 
-10.298

>  <exports>  (464) 
['/opt/xchem-fragalysis-2/maxwin/BulkDock/OUTPUTS/openbind_xx01zvns2b_c2_elabs_1LOUTNY.sdf', '/opt/xchem-fragalysis-2/maxwin/BulkDock/OUTPUTS/openbind_xx01zvns2b_c2_elabs_1LSYIIV.sdf']

>  <tags>  (464) 
syndirella_placed,openbind_xx01zvns2b_c2_elabs,openbind_xx01zvns2b_c2_elabs_scored_6.2plus,syndirella_product,openbind_xx01zvns2b_c2_elabs_scored,openbind_xx01zvns2b_c2_elabs_scored_top80percent,BulkDock Fragalysis export

>  <subsites>  (464) 
1 - Z4590/B/203/1

>  <smiles>  (464) 
O=C1C[C@H](N2Cc3cc(NC(=O)c4cccc5c6c([nH]c45)CCCC6)ccc3C2=O)C(=O)N1

>  <HIPPO Pose ID>  (464) 
116920

>  <energy_score>  (464) 
-63.091963

>  <inchikey>  (464) 
CXFSZWCVFKKHNJ-FQEVSTJZSA-N

>  <gnina_score_min>  (464) 
6.306

>  <gnina_score>  (464) 
6.385

>  <ref_mols>  (464) 
Z3817a

>  <HIPPO Compound ID>  (464) 
180449

>  <distance_score>  (464) 
0.856827

>  <rmsd(smina/fragmenstein)>  (464) 
0.523

>  <ref_pdb>  (464) 
Z3817a

>  <inspiration_score>  (464) 
None

$$$$
P118237
     RDKit          3D

 28 31  0  0  0  0  0  0  0  0999 V2000
   -8.2120    7.7251   -9.9129 C   0  0  0  0  0  0  0  0  0  0  0  0
   -7.1308    6.7205   -9.5362 C   0  0  0  0  0  0  0  0  0  0  0  0
   -7.6229    5.3157   -9.6570 C   0  0  0  0  0  0  0  0  0  0  0  0
   -7.7422    4.4386  -10.7136 C   0  0  0  0  0  0  0  0  0  0  0  0
   -7.3838    4.5704  -12.0214 N   0  0  0  0  0  0  0  0  0  0  0  0
   -6.8756    5.8020  -12.8034 C   0  0  0  0  0  0  0  0  0  0  0  0
   -6.6111    6.8759  -12.4339 O   0  0  0  0  0  0  0  0  0  0  0  0
   -6.8433    5.4919  -14.2428 C   0  0  0  0  0  0  0  0  0  0  0  0
   -8.0248    4.9724  -14.7730 C   0  0  0  0  0  0  0  0  0  0  0  0
   -8.0286    4.6066  -16.0944 C   0  0  0  0  0  0  0  0  0  0  0  0
   -9.1277    3.9822  -16.6551 C   0  0  0  0  0  0  0  0  0  0  0  0
   -9.0594    3.5990  -17.9719 C   0  0  0  0  0  0  0  0  0  0  0  0
   -7.9133    3.9040  -18.6650 C   0  0  0  0  0  0  0  0  0  0  0  0
   -7.6646    3.5683  -20.0563 C   0  0  0  0  0  0  0  0  0  0  0  0
   -6.8643    4.5194  -18.1439 N   0  0  0  0  0  0  0  0  0  0  0  0
   -6.8924    4.8458  -16.8834 C   0  0  0  0  0  0  0  0  0  0  0  0
   -5.7353    5.3951  -16.3972 C   0  0  0  0  0  0  0  0  0  0  0  0
   -4.6782    5.5743  -17.2364 N   0  0  0  0  0  0  0  0  0  0  0  0
   -3.5177    6.0360  -16.7597 C   0  0  0  0  0  0  0  0  0  0  0  0
   -2.3807    6.1914  -17.7198 C   0  0  0  0  0  0  0  0  0  0  0  0
   -3.3724    6.3575  -15.4269 C   0  0  0  0  0  0  0  0  0  0  0  0
   -4.4603    6.1986  -14.5686 C   0  0  0  0  0  0  0  0  0  0  0  0
   -5.6898    5.7079  -15.0388 C   0  0  0  0  0  0  0  0  0  0  0  0
   -8.3643    3.2886  -10.1807 C   0  0  0  0  0  0  0  0  0  0  0  0
   -8.5930    3.4065   -8.8781 N   0  0  0  0  0  0  0  0  0  0  0  0
   -8.0319    4.5840   -8.5651 N   0  0  0  0  0  0  0  0  0  0  0  0
   -7.7821    4.8633   -7.1686 C   0  0  0  0  0  0  0  0  0  0  0  0
   -8.8261    5.7439   -6.5147 C   0  0  0  0  0  0  0  0  0  0  0  0
  1  2  1  0
  2  3  1  0
  3  4  2  0
  4  5  1  0
  5  6  1  0
  6  7  2  0
  6  8  1  0
  8  9  2  0
  9 10  1  0
 10 11  2  0
 11 12  1  0
 12 13  2  0
 13 14  1  0
 13 15  1  0
 15 16  2  0
 16 17  1  0
 17 18  2  0
 18 19  1  0
 19 20  1  0
 19 21  2  0
 21 22  1  0
 22 23  2  0
  4 24  1  0
 24 25  2  0
 25 26  1  0
 26 27  1  0
 27 28  1  0
 26  3  1  0
 23  8  1  0
 16 10  1  0
 23 17  1  0
M  END
>  <name>  (465) 
P118237

>  <alias>  (465) 
None

>  <smina_score_min>  (465) 
-7.051

>  <exports>  (465) 
['/opt/xchem-fragalysis-2/maxwin/BulkDock/OUTPUTS/openbind_xx01zvns2b_c2_elabs_1LOUTNY.sdf', '/opt/xchem-fragalysis-2/maxwin/BulkDock/OUTPUTS/openbind_xx01zvns2b_c2_elabs_1LSYIIV.sdf']

>  <tags>  (465) 
syndirella_placed,openbind_xx01zvns2b_c2_elabs,openbind_xx01zvns2b_c2_elabs_scored_6.2plus,syndirella_product,openbind_xx01zvns2b_c2_elabs_scored,openbind_xx01zvns2b_c2_elabs_scored_top80percent,BulkDock Fragalysis export

>  <subsites>  (465) 
1 - Z4590/B/203/1

>  <smiles>  (465) 
CCc1c(NC(=O)c2cc3ccc(C)nc3c3nc(C)ccc23)cnn1CC

>  <HIPPO Pose ID>  (465) 
118237

>  <energy_score>  (465) 
-16.980739

>  <inchikey>  (465) 
RUNNGFCQFAKDHZ-UHFFFAOYSA-N

>  <gnina_score_min>  (465) 
6.202

>  <gnina_score>  (465) 
6.147

>  <ref_mols>  (465) 
Z1342a

>  <HIPPO Compound ID>  (465) 
181936

>  <distance_score>  (465) 
1.87841

>  <rmsd(smina/fragmenstein)>  (465) 
1.336

>  <ref_pdb>  (465) 
Z1342a

>  <inspiration_score>  (465) 
None

$$$$
P118238
     RDKit          3D

 28 31  0  0  0  0  0  0  0  0999 V2000
   -7.3983    3.1954  -20.0127 C   0  0  0  0  0  0  0  0  0  0  0  0
   -7.7940    3.7492  -18.7274 C   0  0  0  0  0  0  0  0  0  0  0  0
   -8.9691    3.4506  -18.0797 C   0  0  0  0  0  0  0  0  0  0  0  0
   -9.1513    3.9598  -16.8185 C   0  0  0  0  0  0  0  0  0  0  0  0
   -8.1082    4.6613  -16.2449 C   0  0  0  0  0  0  0  0  0  0  0  0
   -8.1778    5.0700  -14.9388 C   0  0  0  0  0  0  0  0  0  0  0  0
   -7.0379    5.6405  -14.3753 C   0  0  0  0  0  0  0  0  0  0  0  0
   -7.1581    5.9801  -12.9514 C   0  0  0  0  0  0  0  0  0  0  0  0
   -7.0251    7.0840  -12.5998 O   0  0  0  0  0  0  0  0  0  0  0  0
   -7.5615    4.7177  -12.1577 N   0  0  0  0  0  0  0  0  0  0  0  0
   -7.7814    4.5430  -10.8241 C   0  0  0  0  0  0  0  0  0  0  0  0
   -8.3352    3.3619  -10.2868 C   0  0  0  0  0  0  0  0  0  0  0  0
   -8.5511    3.4664   -8.9833 N   0  0  0  0  0  0  0  0  0  0  0  0
   -8.1181    4.6989   -8.6832 N   0  0  0  0  0  0  0  0  0  0  0  0
   -8.2754    5.1287   -7.3204 C   0  0  0  0  0  0  0  0  0  0  0  0
   -7.5759    5.3851   -9.7475 C   0  0  0  0  0  0  0  0  0  0  0  0
   -6.9172    6.7381   -9.6429 C   0  0  0  0  0  0  0  0  0  0  0  0
   -7.9460    7.8679   -9.6749 C   0  0  0  0  0  0  0  0  0  0  0  0
   -5.9568    6.8940   -8.4609 C   0  0  0  0  0  0  0  0  0  0  0  0
   -5.8542    5.8599  -15.1192 C   0  0  0  0  0  0  0  0  0  0  0  0
   -4.6592    6.3810  -14.5981 C   0  0  0  0  0  0  0  0  0  0  0  0
   -3.5303    6.5272  -15.4039 C   0  0  0  0  0  0  0  0  0  0  0  0
   -3.6046    6.1701  -16.7343 C   0  0  0  0  0  0  0  0  0  0  0  0
   -2.4180    6.3043  -17.6361 C   0  0  0  0  0  0  0  0  0  0  0  0
   -4.7354    5.6870  -17.2595 N   0  0  0  0  0  0  0  0  0  0  0  0
   -5.8295    5.5116  -16.4704 C   0  0  0  0  0  0  0  0  0  0  0  0
   -6.9469    4.9148  -16.9943 C   0  0  0  0  0  0  0  0  0  0  0  0
   -6.8419    4.5238  -18.2337 N   0  0  0  0  0  0  0  0  0  0  0  0
  1  2  1  0
  2  3  2  0
  3  4  1  0
  4  5  2  0
  5  6  1  0
  6  7  2  0
  7  8  1  0
  8  9  2  0
  8 10  1  0
 10 11  1  0
 11 12  1  0
 12 13  2  0
 13 14  1  0
 14 15  1  0
 14 16  1  0
 16 17  1  0
 17 18  1  0
 17 19  1  0
  7 20  1  0
 20 21  2  0
 21 22  1  0
 22 23  2  0
 23 24  1  0
 23 25  1  0
 25 26  2  0
 26 27  1  0
 27 28  2  0
 28  2  1  0
 27  5  1  0
 16 11  2  0
 26 20  1  0
M  END
>  <name>  (466) 
P118238

>  <alias>  (466) 
None

>  <smina_score_min>  (466) 
-7.274

>  <exports>  (466) 
['/opt/xchem-fragalysis-2/maxwin/BulkDock/OUTPUTS/openbind_xx01zvns2b_c2_elabs_1LOUTNY.sdf', '/opt/xchem-fragalysis-2/maxwin/BulkDock/OUTPUTS/openbind_xx01zvns2b_c2_elabs_1LSYIIV.sdf']

>  <tags>  (466) 
syndirella_placed,openbind_xx01zvns2b_c2_elabs,openbind_xx01zvns2b_c2_elabs_scored_6.2plus,syndirella_product,openbind_xx01zvns2b_c2_elabs_scored,openbind_xx01zvns2b_c2_elabs_scored_top80percent,BulkDock Fragalysis export

>  <subsites>  (466) 
1 - Z4590/B/203/1

>  <smiles>  (466) 
Cc1ccc2cc(C(=O)Nc3cnn(C)c3C(C)C)c3ccc(C)nc3c2n1

>  <HIPPO Pose ID>  (466) 
118238

>  <energy_score>  (466) 
-24.215362

>  <inchikey>  (466) 
ATJKFUXEAIGESV-UHFFFAOYSA-N

>  <gnina_score_min>  (466) 
6.218

>  <gnina_score>  (466) 
6.137

>  <ref_mols>  (466) 
Z1342a

>  <HIPPO Compound ID>  (466) 
181937

>  <distance_score>  (466) 
1.803904

>  <rmsd(smina/fragmenstein)>  (466) 
1.328

>  <ref_pdb>  (466) 
Z1342a

>  <inspiration_score>  (466) 
None

$$$$
P118360
     RDKit          3D

 31 35  0  0  0  0  0  0  0  0999 V2000
   -9.0784    2.7457  -11.3478 C   0  0  0  0  0  0  0  0  0  0  0  0
   -8.6162    4.1114  -11.8639 C   0  0  2  0  0  0  0  0  0  0  0  0
   -8.2688    4.1012  -13.2623 N   0  0  0  0  0  0  0  0  0  0  0  0
   -7.9399    5.2678  -14.2247 C   0  0  0  0  0  0  0  0  0  0  0  0
   -7.8238    6.4098  -14.0164 O   0  0  0  0  0  0  0  0  0  0  0  0
   -7.8783    4.7191  -15.6245 C   0  0  0  0  0  0  0  0  0  0  0  0
   -9.0430    4.1957  -16.0732 C   0  0  0  0  0  0  0  0  0  0  0  0
   -9.2841    3.8999  -17.4722 C   0  0  0  0  0  0  0  0  0  0  0  0
   -8.3161    4.1689  -18.3552 C   0  0  0  0  0  0  0  0  0  0  0  0
   -7.1165    4.7026  -17.9008 N   0  0  0  0  0  0  0  0  0  0  0  0
   -6.0142    5.0444  -18.6335 C   0  0  0  0  0  0  0  0  0  0  0  0
   -5.0725    5.4615  -17.7187 C   0  0  0  0  0  0  0  0  0  0  0  0
   -3.6606    5.8719  -17.9951 C   0  0  0  0  0  0  0  0  0  0  0  0
   -3.3572    7.1830  -17.4239 N   0  0  0  0  0  0  0  0  0  0  0  0
   -4.1729    8.2730  -17.9450 C   0  0  0  0  0  0  0  0  0  0  0  0
   -3.4328    9.5003  -17.4381 C   0  0  0  0  0  0  0  0  0  0  0  0
   -1.9764    9.0631  -17.3171 C   0  0  0  0  0  0  0  0  0  0  0  0
   -1.9732    7.5800  -17.6575 C   0  0  0  0  0  0  0  0  0  0  0  0
   -5.6000    5.4340  -16.4400 N   0  0  0  0  0  0  0  0  0  0  0  0
   -6.8349    4.9884  -16.5617 C   0  0  0  0  0  0  0  0  0  0  0  0
   -7.5763    4.5666  -10.8847 C   0  0  0  0  0  0  0  0  0  0  0  0
   -7.9286    5.5251   -9.9212 C   0  0  0  0  0  0  0  0  0  0  0  0
   -7.2174    5.6039   -8.7357 C   0  0  0  0  0  0  0  0  0  0  0  0
   -6.1451    4.7409   -8.5206 C   0  0  0  0  0  0  0  0  0  0  0  0
   -5.7482    3.8296   -9.5070 C   0  0  0  0  0  0  0  0  0  0  0  0
   -4.6034    3.0074   -9.3335 N   0  0  0  0  0  0  0  0  0  0  0  0
   -3.5311    3.2747   -8.4955 C   0  0  0  0  0  0  0  0  0  0  0  0
   -2.5282    2.3588   -8.7311 C   0  0  0  0  0  0  0  0  0  0  0  0
   -2.9982    1.4703   -9.7190 C   0  0  0  0  0  0  0  0  0  0  0  0
   -4.2689    1.8778  -10.0607 C   0  0  0  0  0  0  0  0  0  0  0  0
   -6.4409    3.7729  -10.7078 C   0  0  0  0  0  0  0  0  0  0  0  0
  2  1  1  1
  2  3  1  0
  3  4  1  0
  4  5  2  0
  4  6  1  0
  6  7  2  0
  7  8  1  0
  8  9  2  0
  9 10  1  0
 10 11  1  0
 11 12  2  0
 12 13  1  0
 13 14  1  0
 14 15  1  0
 15 16  1  0
 16 17  1  0
 17 18  1  0
 12 19  1  0
 19 20  2  0
  2 21  1  0
 21 22  2  0
 22 23  1  0
 23 24  2  0
 24 25  1  0
 25 26  1  0
 26 27  1  0
 27 28  2  0
 28 29  1  0
 29 30  2  0
 25 31  2  0
 20  6  1  0
 31 21  1  0
 20 10  1  0
 30 26  1  0
 18 14  1  0
M  END
>  <name>  (467) 
P118360

>  <alias>  (467) 
None

>  <smina_score_min>  (467) 
-6.962

>  <exports>  (467) 
['/opt/xchem-fragalysis-2/maxwin/BulkDock/OUTPUTS/openbind_xx01zvns2b_c2_elabs_1LOUTNY.sdf', '/opt/xchem-fragalysis-2/maxwin/BulkDock/OUTPUTS/openbind_xx01zvns2b_c2_elabs_1LSYIIV.sdf']

>  <tags>  (467) 
syndirella_placed,openbind_xx01zvns2b_c2_elabs,openbind_xx01zvns2b_c2_elabs_scored_6.2plus,syndirella_product,openbind_xx01zvns2b_c2_elabs_scored,openbind_xx01zvns2b_c2_elabs_scored_top80percent,BulkDock Fragalysis export

>  <subsites>  (467) 
1 - Z4590/B/203/1

>  <smiles>  (467) 
C[C@H](NC(=O)c1cccn2cc(CN3CCCC3)nc12)c1cccc(-n2cccc2)c1

>  <HIPPO Pose ID>  (467) 
118360

>  <energy_score>  (467) 
-16.812909

>  <inchikey>  (467) 
LUQSVNBXVATDBR-IBGZPJMESA-N

>  <gnina_score_min>  (467) 
6.211

>  <gnina_score>  (467) 
6.33

>  <ref_mols>  (467) 
Z3093a

>  <HIPPO Compound ID>  (467) 
182131

>  <distance_score>  (467) 
1.415166

>  <rmsd(smina/fragmenstein)>  (467) 
0.459

>  <ref_pdb>  (467) 
Z3093a

>  <inspiration_score>  (467) 
None

$$$$
P118384
     RDKit          3D

 32 36  0  0  0  0  0  0  0  0999 V2000
   -3.8736    1.2399  -10.8844 C   0  0  0  0  0  0  0  0  0  0  0  0
   -4.1851    2.1041   -9.7428 N   0  0  0  0  0  0  0  0  0  0  0  0
   -3.1955    3.1812   -9.6544 C   0  0  0  0  0  0  0  0  0  0  0  0
   -5.5450    2.6994   -9.8605 C   0  0  0  0  0  0  0  0  0  0  0  0
   -6.7013    1.6654   -9.8589 C   0  0  0  0  0  0  0  0  0  0  0  0
   -8.1063    2.1230   -9.8731 N   0  0  0  0  0  0  0  0  0  0  0  0
   -8.4495    3.1307   -8.8592 C   0  0  0  0  0  0  0  0  0  0  0  0
   -8.3412    4.4287   -9.5952 C   0  0  0  0  0  0  0  0  0  0  0  0
   -8.2120    5.7066   -9.0974 C   0  0  0  0  0  0  0  0  0  0  0  0
   -7.9888    6.7327  -10.0133 C   0  0  0  0  0  0  0  0  0  0  0  0
   -7.8829    6.4637  -11.3923 C   0  0  0  0  0  0  0  0  0  0  0  0
   -8.0353    5.1676  -11.8838 C   0  0  0  0  0  0  0  0  0  0  0  0
   -7.8731    4.8611  -13.2300 N   0  0  0  0  0  0  0  0  0  0  0  0
   -7.5028    5.7651  -14.4277 C   0  0  0  0  0  0  0  0  0  0  0  0
   -7.2012    6.8919  -14.4598 O   0  0  0  0  0  0  0  0  0  0  0  0
   -7.6869    4.9864  -15.7013 C   0  0  0  0  0  0  0  0  0  0  0  0
   -8.8915    4.4401  -15.9811 C   0  0  0  0  0  0  0  0  0  0  0  0
   -9.2409    3.9985  -17.3245 C   0  0  0  0  0  0  0  0  0  0  0  0
   -8.3431    4.1490  -18.3093 C   0  0  0  0  0  0  0  0  0  0  0  0
   -7.0954    4.6830  -18.0094 N   0  0  0  0  0  0  0  0  0  0  0  0
   -6.0417    4.9466  -18.8437 C   0  0  0  0  0  0  0  0  0  0  0  0
   -5.0353    5.4382  -18.0388 C   0  0  0  0  0  0  0  0  0  0  0  0
   -3.6644    5.8865  -18.4411 C   0  0  0  0  0  0  0  0  0  0  0  0
   -3.2491    7.0792  -17.7002 N   0  0  0  0  0  0  0  0  0  0  0  0
   -4.1029    8.2445  -17.9116 C   0  0  0  0  0  0  0  0  0  0  0  0
   -3.2736    9.3756  -17.3240 C   0  0  0  0  0  0  0  0  0  0  0  0
   -1.8266    8.9041  -17.4277 C   0  0  0  0  0  0  0  0  0  0  0  0
   -1.9003    7.5128  -18.0396 C   0  0  0  0  0  0  0  0  0  0  0  0
   -5.4588    5.4866  -16.7279 N   0  0  0  0  0  0  0  0  0  0  0  0
   -6.7093    5.0798  -16.7342 C   0  0  0  0  0  0  0  0  0  0  0  0
   -8.2936    4.1709  -10.9711 C   0  0  0  0  0  0  0  0  0  0  0  0
   -8.4466    2.7092  -11.1764 C   0  0  0  0  0  0  0  0  0  0  0  0
  1  2  1  0
  2  3  1  0
  2  4  1  0
  4  5  1  0
  5  6  1  0
  6  7  1  0
  7  8  1  0
  8  9  2  0
  9 10  1  0
 10 11  2  0
 11 12  1  0
 12 13  1  0
 13 14  1  0
 14 15  2  0
 14 16  1  0
 16 17  2  0
 17 18  1  0
 18 19  2  0
 19 20  1  0
 20 21  1  0
 21 22  2  0
 22 23  1  0
 23 24  1  0
 24 25  1  0
 25 26  1  0
 26 27  1  0
 27 28  1  0
 22 29  1  0
 29 30  2  0
 12 31  2  0
 31 32  1  0
 32  6  1  0
 31  8  1  0
 30 16  1  0
 30 20  1  0
 28 24  1  0
M  END
>  <name>  (468) 
P118384

>  <alias>  (468) 
None

>  <smina_score_min>  (468) 
-6.894

>  <exports>  (468) 
['/opt/xchem-fragalysis-2/maxwin/BulkDock/OUTPUTS/openbind_xx01zvns2b_c2_elabs_1LOUTNY.sdf', '/opt/xchem-fragalysis-2/maxwin/BulkDock/OUTPUTS/openbind_xx01zvns2b_c2_elabs_1LSYIIV.sdf']

>  <tags>  (468) 
syndirella_placed,openbind_xx01zvns2b_c2_elabs,openbind_xx01zvns2b_c2_elabs_scored_6.2plus,syndirella_product,openbind_xx01zvns2b_c2_elabs_scored,openbind_xx01zvns2b_c2_elabs_scored_top80percent,BulkDock Fragalysis export

>  <subsites>  (468) 
1 - Z4590/B/203/1

>  <smiles>  (468) 
CN(C)CCN1Cc2cccc(NC(=O)c3cccn4cc(CN5CCCC5)nc34)c2C1

>  <HIPPO Pose ID>  (468) 
118384

>  <energy_score>  (468) 
-73.204619

>  <inchikey>  (468) 
DFXISTYINXKUFH-UHFFFAOYSA-N

>  <gnina_score_min>  (468) 
6.344

>  <gnina_score>  (468) 
6.454

>  <ref_mols>  (468) 
Z3093a

>  <HIPPO Compound ID>  (468) 
182162

>  <distance_score>  (468) 
0.74486

>  <rmsd(smina/fragmenstein)>  (468) 
1.146

>  <ref_pdb>  (468) 
Z3093a

>  <inspiration_score>  (468) 
None

$$$$
P118386
     RDKit          3D

 32 37  0  0  0  0  0  0  0  0999 V2000
   -7.3878    6.7933  -14.4764 O   0  0  0  0  0  0  0  0  0  0  0  0
   -7.6687    5.6609  -14.4552 C   0  0  0  0  0  0  0  0  0  0  0  0
   -8.1011    4.7575  -13.2766 N   0  0  0  0  0  0  0  0  0  0  0  0
   -8.1828    5.0273  -11.9152 C   0  0  0  0  0  0  0  0  0  0  0  0
   -8.2174    6.3482  -11.4552 C   0  0  0  0  0  0  0  0  0  0  0  0
   -8.2965    6.6433  -10.0822 C   0  0  0  0  0  0  0  0  0  0  0  0
   -8.3096    5.6228   -9.1380 C   0  0  0  0  0  0  0  0  0  0  0  0
   -8.2423    4.3248   -9.6024 C   0  0  0  0  0  0  0  0  0  0  0  0
   -8.2063    4.0240  -10.9729 C   0  0  0  0  0  0  0  0  0  0  0  0
   -8.0204    2.5509  -11.1241 C   0  0  0  0  0  0  0  0  0  0  0  0
   -7.4280    2.1673   -9.8201 N   0  0  0  0  0  0  0  0  0  0  0  0
   -6.0575    2.1122   -9.8575 C   0  0  0  0  0  0  0  0  0  0  0  0
   -5.2349    3.0476   -9.4211 N   0  0  0  0  0  0  0  0  0  0  0  0
   -3.9254    2.7182   -9.6970 C   0  0  0  0  0  0  0  0  0  0  0  0
   -3.7365    1.5082  -10.3204 C   0  0  0  0  0  0  0  0  0  0  0  0
   -5.2488    0.7569  -10.5750 S   0  0  0  0  0  0  0  0  0  0  0  0
   -8.0173    3.0723   -8.8105 C   0  0  0  0  0  0  0  0  0  0  0  0
   -7.7490    4.8797  -15.7351 C   0  0  0  0  0  0  0  0  0  0  0  0
   -8.9380    4.3266  -16.0658 C   0  0  0  0  0  0  0  0  0  0  0  0
   -9.2448    3.9194  -17.4282 C   0  0  0  0  0  0  0  0  0  0  0  0
   -8.3249    4.1158  -18.3828 C   0  0  0  0  0  0  0  0  0  0  0  0
   -7.0950    4.6608  -18.0345 N   0  0  0  0  0  0  0  0  0  0  0  0
   -6.0255    4.9585  -18.8355 C   0  0  0  0  0  0  0  0  0  0  0  0
   -5.0425    5.4328  -17.9930 C   0  0  0  0  0  0  0  0  0  0  0  0
   -3.6603    5.8816  -18.3536 C   0  0  0  0  0  0  0  0  0  0  0  0
   -3.2781    7.0951  -17.6300 N   0  0  0  0  0  0  0  0  0  0  0  0
   -4.1330    8.2475  -17.8970 C   0  0  0  0  0  0  0  0  0  0  0  0
   -3.3291    9.3991  -17.3139 C   0  0  0  0  0  0  0  0  0  0  0  0
   -1.8758    8.9392  -17.3700 C   0  0  0  0  0  0  0  0  0  0  0  0
   -1.9225    7.5299  -17.9418 C   0  0  0  0  0  0  0  0  0  0  0  0
   -5.5009    5.4505  -16.6919 N   0  0  0  0  0  0  0  0  0  0  0  0
   -6.7456    5.0250  -16.7382 C   0  0  0  0  0  0  0  0  0  0  0  0
  1  2  2  0
  2  3  1  0
  3  4  1  0
  4  5  2  0
  5  6  1  0
  6  7  2  0
  7  8  1  0
  8  9  2  0
  9 10  1  0
 10 11  1  0
 11 12  1  0
 12 13  2  0
 13 14  1  0
 14 15  2  0
 15 16  1  0
 11 17  1  0
  2 18  1  0
 18 19  2  0
 19 20  1  0
 20 21  2  0
 21 22  1  0
 22 23  1  0
 23 24  2  0
 24 25  1  0
 25 26  1  0
 26 27  1  0
 27 28  1  0
 28 29  1  0
 29 30  1  0
 24 31  1  0
 31 32  2  0
  9  4  1  0
 16 12  1  0
 32 18  1  0
 17  8  1  0
 32 22  1  0
 30 26  1  0
M  END
>  <name>  (469) 
P118386

>  <alias>  (469) 
None

>  <smina_score_min>  (469) 
-7.476

>  <exports>  (469) 
['/opt/xchem-fragalysis-2/maxwin/BulkDock/OUTPUTS/openbind_xx01zvns2b_c2_elabs_1LOUTNY.sdf', '/opt/xchem-fragalysis-2/maxwin/BulkDock/OUTPUTS/openbind_xx01zvns2b_c2_elabs_1LSYIIV.sdf']

>  <tags>  (469) 
syndirella_placed,openbind_xx01zvns2b_c2_elabs,openbind_xx01zvns2b_c2_elabs_scored_6.2plus,syndirella_product,openbind_xx01zvns2b_c2_elabs_scored,openbind_xx01zvns2b_c2_elabs_scored_top80percent,BulkDock Fragalysis export

>  <subsites>  (469) 
1 - Z4590/B/203/1

>  <smiles>  (469) 
O=C(Nc1cccc2c1CN(c1nccs1)C2)c1cccn2cc(CN3CCCC3)nc12

>  <HIPPO Pose ID>  (469) 
118386

>  <energy_score>  (469) 
-22.986121

>  <inchikey>  (469) 
SVDDGJMDIKVPRM-UHFFFAOYSA-N

>  <gnina_score_min>  (469) 
6.316

>  <gnina_score>  (469) 
6.555

>  <ref_mols>  (469) 
Z3093a

>  <HIPPO Compound ID>  (469) 
182164

>  <distance_score>  (469) 
0.743604

>  <rmsd(smina/fragmenstein)>  (469) 
0.967

>  <ref_pdb>  (469) 
Z3093a

>  <inspiration_score>  (469) 
None

$$$$
P118401
     RDKit          3D

 33 37  0  0  0  0  0  0  0  0999 V2000
   -7.3765    8.6314  -11.9886 C   0  0  0  0  0  0  0  0  0  0  0  0
   -8.3792    7.5111  -12.0580 C   0  0  0  0  0  0  0  0  0  0  0  0
   -9.4159    7.5717  -12.7158 O   0  0  0  0  0  0  0  0  0  0  0  0
   -8.1533    6.3301  -11.1981 C   0  0  0  0  0  0  0  0  0  0  0  0
   -8.2579    6.5752   -9.8054 C   0  0  0  0  0  0  0  0  0  0  0  0
   -8.3546    5.5221   -8.8940 C   0  0  0  0  0  0  0  0  0  0  0  0
   -8.4532    5.9174   -7.0502 Br  0  0  0  0  0  0  0  0  0  0  0  0
   -8.3756    4.2447   -9.4029 C   0  0  0  0  0  0  0  0  0  0  0  0
   -8.2009    4.0126  -10.7652 C   0  0  0  0  0  0  0  0  0  0  0  0
   -8.0736    5.0247  -11.7089 C   0  0  0  0  0  0  0  0  0  0  0  0
   -7.9039    4.7090  -13.0667 N   0  0  0  0  0  0  0  0  0  0  0  0
   -7.4265    5.5906  -14.2570 C   0  0  0  0  0  0  0  0  0  0  0  0
   -7.0289    6.6910  -14.2734 O   0  0  0  0  0  0  0  0  0  0  0  0
   -7.6361    4.8603  -15.5570 C   0  0  0  0  0  0  0  0  0  0  0  0
   -8.8648    4.3741  -15.8445 C   0  0  0  0  0  0  0  0  0  0  0  0
   -9.2531    4.0115  -17.2014 C   0  0  0  0  0  0  0  0  0  0  0  0
   -8.3717    4.1837  -18.1970 C   0  0  0  0  0  0  0  0  0  0  0  0
   -7.1061    4.6729  -17.8978 N   0  0  0  0  0  0  0  0  0  0  0  0
   -6.0692    4.9589  -18.7460 C   0  0  0  0  0  0  0  0  0  0  0  0
   -5.0389    5.4057  -17.9458 C   0  0  0  0  0  0  0  0  0  0  0  0
   -3.6731    5.8552  -18.3629 C   0  0  0  0  0  0  0  0  0  0  0  0
   -3.2699    7.0735  -17.6571 N   0  0  0  0  0  0  0  0  0  0  0  0
   -1.9273    7.5121  -18.0147 C   0  0  0  0  0  0  0  0  0  0  0  0
   -1.8672    8.9209  -17.4426 C   0  0  0  0  0  0  0  0  0  0  0  0
   -3.3194    9.3783  -17.3464 C   0  0  0  0  0  0  0  0  0  0  0  0
   -4.1380    8.2216  -17.8984 C   0  0  0  0  0  0  0  0  0  0  0  0
   -5.4287    5.4004  -16.6229 N   0  0  0  0  0  0  0  0  0  0  0  0
   -6.6826    4.9984  -16.6126 C   0  0  0  0  0  0  0  0  0  0  0  0
   -8.1279    2.5711  -10.9337 C   0  0  0  0  0  0  0  0  0  0  0  0
   -7.9590    2.0363  -12.0115 O   0  0  0  0  0  0  0  0  0  0  0  0
   -8.2806    2.0212   -9.7000 N   0  0  0  0  0  0  0  0  0  0  0  0
   -8.5643    2.9470   -8.7528 C   0  0  0  0  0  0  0  0  0  0  0  0
   -8.9761    2.7836   -7.6233 O   0  0  0  0  0  0  0  0  0  0  0  0
  1  2  1  0
  2  3  2  0
  2  4  1  0
  4  5  2  0
  5  6  1  0
  6  7  1  0
  6  8  2  0
  8  9  1  0
  9 10  2  0
 10 11  1  0
 11 12  1  0
 12 13  2  0
 12 14  1  0
 14 15  2  0
 15 16  1  0
 16 17  2  0
 17 18  1  0
 18 19  1  0
 19 20  2  0
 20 21  1  0
 21 22  1  0
 22 23  1  0
 23 24  1  0
 24 25  1  0
 25 26  1  0
 20 27  1  0
 27 28  2  0
  9 29  1  0
 29 30  2  0
 29 31  1  0
 31 32  1  0
 32 33  2  0
 10  4  1  0
 28 14  1  0
 32  8  1  0
 28 18  1  0
 26 22  1  0
M  END
>  <name>  (470) 
P118401

>  <alias>  (470) 
None

>  <smina_score_min>  (470) 
-7.968

>  <exports>  (470) 
['/opt/xchem-fragalysis-2/maxwin/BulkDock/OUTPUTS/openbind_xx01zvns2b_c2_elabs_1LOUTNY.sdf', '/opt/xchem-fragalysis-2/maxwin/BulkDock/OUTPUTS/openbind_xx01zvns2b_c2_elabs_1LSYIIV.sdf']

>  <tags>  (470) 
syndirella_placed,openbind_xx01zvns2b_c2_elabs,openbind_xx01zvns2b_c2_elabs_scored_6.2plus,syndirella_product,openbind_xx01zvns2b_c2_elabs_scored,openbind_xx01zvns2b_c2_elabs_scored_top80percent,BulkDock Fragalysis export

>  <subsites>  (470) 
1 - Z4590/B/203/1

>  <smiles>  (470) 
CC(=O)c1cc(Br)c2c(c1NC(=O)c1cccn3cc(CN4CCCC4)nc13)C(=O)NC2=O

>  <HIPPO Pose ID>  (470) 
118401

>  <energy_score>  (470) 
-46.154543

>  <inchikey>  (470) 
VLPDURGIPRKPSS-UHFFFAOYSA-N

>  <gnina_score_min>  (470) 
6.34

>  <gnina_score>  (470) 
6.368

>  <ref_mols>  (470) 
Z3093a

>  <HIPPO Compound ID>  (470) 
182185

>  <distance_score>  (470) 
0.642564

>  <rmsd(smina/fragmenstein)>  (470) 
0.637

>  <ref_pdb>  (470) 
Z3093a

>  <inspiration_score>  (470) 
None

$$$$
P118403
     RDKit          3D

 33 37  0  0  0  0  0  0  0  0999 V2000
   -4.1713    1.0669  -11.0166 C   0  0  0  0  0  0  0  0  0  0  0  0
   -4.6292    2.4385  -10.7938 N   0  0  0  0  0  0  0  0  0  0  0  0
   -5.3599    2.5588   -9.5074 C   0  0  0  0  0  0  0  0  0  0  0  0
   -6.8079    1.9653   -9.4791 C   0  0  0  0  0  0  0  0  0  0  0  0
   -7.6301    2.5730  -10.5386 N   0  0  0  0  0  0  0  0  0  0  0  0
   -8.0628    3.8911  -10.3130 C   0  0  0  0  0  0  0  0  0  0  0  0
   -8.1855    4.4648   -9.0477 C   0  0  0  0  0  0  0  0  0  0  0  0
   -8.3569    5.8392   -8.9105 C   0  0  0  0  0  0  0  0  0  0  0  0
   -8.4125    6.3773   -7.6832 F   0  0  0  0  0  0  0  0  0  0  0  0
   -8.4406    6.6789  -10.0158 C   0  0  0  0  0  0  0  0  0  0  0  0
   -8.4393    6.1290  -11.2938 C   0  0  0  0  0  0  0  0  0  0  0  0
   -8.5012    7.0023  -12.5198 C   0  0  0  0  0  0  0  0  0  0  0  0
   -8.4174    6.2686  -13.7626 N   0  0  0  0  0  0  0  0  0  0  0  0
   -7.2408    5.4763  -14.3852 C   0  0  0  0  0  0  0  0  0  0  0  0
   -6.1858    5.2301  -13.9561 O   0  0  0  0  0  0  0  0  0  0  0  0
   -7.6584    5.0090  -15.7517 C   0  0  0  0  0  0  0  0  0  0  0  0
   -8.8483    4.4094  -15.9803 C   0  0  0  0  0  0  0  0  0  0  0  0
   -9.2612    4.0232  -17.3235 C   0  0  0  0  0  0  0  0  0  0  0  0
   -8.3934    4.1664  -18.3369 C   0  0  0  0  0  0  0  0  0  0  0  0
   -7.1406    4.7119  -18.0809 N   0  0  0  0  0  0  0  0  0  0  0  0
   -6.1022    4.9575  -18.9413 C   0  0  0  0  0  0  0  0  0  0  0  0
   -5.1066    5.5350  -18.1818 C   0  0  0  0  0  0  0  0  0  0  0  0
   -3.7410    5.9767  -18.6092 C   0  0  0  0  0  0  0  0  0  0  0  0
   -3.2903    7.1404  -17.8442 N   0  0  0  0  0  0  0  0  0  0  0  0
   -1.9176    7.5231  -18.1419 C   0  0  0  0  0  0  0  0  0  0  0  0
   -1.8028    8.9004  -17.5034 C   0  0  0  0  0  0  0  0  0  0  0  0
   -3.2346    9.4164  -17.3955 C   0  0  0  0  0  0  0  0  0  0  0  0
   -4.0916    8.3414  -18.0443 C   0  0  0  0  0  0  0  0  0  0  0  0
   -5.5321    5.6751  -16.8817 N   0  0  0  0  0  0  0  0  0  0  0  0
   -6.7368    5.1550  -16.8290 C   0  0  0  0  0  0  0  0  0  0  0  0
   -8.3411    4.7362  -11.3965 C   0  0  0  0  0  0  0  0  0  0  0  0
   -6.9612    2.2977  -11.8323 C   0  0  0  0  0  0  0  0  0  0  0  0
   -5.5272    2.8888  -11.8833 C   0  0  0  0  0  0  0  0  0  0  0  0
  1  2  1  0
  2  3  1  0
  3  4  1  0
  4  5  1  0
  5  6  1  0
  6  7  2  0
  7  8  1  0
  8  9  1  0
  8 10  2  0
 10 11  1  0
 11 12  1  0
 12 13  1  0
 13 14  1  0
 14 15  2  0
 14 16  1  0
 16 17  2  0
 17 18  1  0
 18 19  2  0
 19 20  1  0
 20 21  1  0
 21 22  2  0
 22 23  1  0
 23 24  1  0
 24 25  1  0
 25 26  1  0
 26 27  1  0
 27 28  1  0
 22 29  1  0
 29 30  2  0
 11 31  2  0
  5 32  1  0
 32 33  1  0
 33  2  1  0
 31  6  1  0
 30 16  1  0
 30 20  1  0
 28 24  1  0
M  END
>  <name>  (471) 
P118403

>  <alias>  (471) 
None

>  <smina_score_min>  (471) 
-7.157

>  <exports>  (471) 
['/opt/xchem-fragalysis-2/maxwin/BulkDock/OUTPUTS/openbind_xx01zvns2b_c2_elabs_1LOUTNY.sdf', '/opt/xchem-fragalysis-2/maxwin/BulkDock/OUTPUTS/openbind_xx01zvns2b_c2_elabs_1LSYIIV.sdf']

>  <tags>  (471) 
syndirella_placed,openbind_xx01zvns2b_c2_elabs,openbind_xx01zvns2b_c2_elabs_scored_6.2plus,syndirella_product,openbind_xx01zvns2b_c2_elabs_scored,openbind_xx01zvns2b_c2_elabs_scored_top80percent,BulkDock Fragalysis export

>  <subsites>  (471) 
1 - Z4590/B/203/1

>  <smiles>  (471) 
CN1CCN(c2cc(F)cc(CNC(=O)c3cccn4cc(CN5CCCC5)nc34)c2)CC1

>  <HIPPO Pose ID>  (471) 
118403

>  <energy_score>  (471) 
-26.270663

>  <inchikey>  (471) 
SSKFVQLXMJLUDE-UHFFFAOYSA-N

>  <gnina_score_min>  (471) 
6.394

>  <gnina_score>  (471) 
6.364

>  <ref_mols>  (471) 
Z3093a

>  <HIPPO Compound ID>  (471) 
182191

>  <distance_score>  (471) 
1.249627

>  <rmsd(smina/fragmenstein)>  (471) 
1.482

>  <ref_pdb>  (471) 
Z3093a

>  <inspiration_score>  (471) 
None

$$$$
P118404
     RDKit          3D

 33 38  0  0  0  0  0  0  0  0999 V2000
   -7.4365    6.8065  -14.4641 O   0  0  0  0  0  0  0  0  0  0  0  0
   -7.6002    5.6520  -14.4550 C   0  0  0  0  0  0  0  0  0  0  0  0
   -7.8388    4.6848  -13.2760 N   0  0  0  0  0  0  0  0  0  0  0  0
   -8.0139    4.9392  -11.9222 C   0  0  0  0  0  0  0  0  0  0  0  0
   -8.1387    6.2450  -11.4379 C   0  0  0  0  0  0  0  0  0  0  0  0
   -8.3200    6.4998  -10.0661 C   0  0  0  0  0  0  0  0  0  0  0  0
   -8.3535    5.4543   -9.1486 C   0  0  0  0  0  0  0  0  0  0  0  0
   -8.1934    4.1725   -9.6360 C   0  0  0  0  0  0  0  0  0  0  0  0
   -8.0399    3.9138  -11.0056 C   0  0  0  0  0  0  0  0  0  0  0  0
   -7.7529    2.4578  -11.1936 C   0  0  0  0  0  0  0  0  0  0  0  0
   -7.2987    2.0478   -9.8498 N   0  0  0  0  0  0  0  0  0  0  0  0
   -5.9018    1.9530   -9.8643 C   0  0  0  0  0  0  0  0  0  0  0  0
   -5.0561    2.9810   -9.4359 C   0  0  0  0  0  0  0  0  0  0  0  0
   -3.6719    2.8549   -9.5635 C   0  0  0  0  0  0  0  0  0  0  0  0
   -3.1474    1.7070  -10.1321 C   0  0  0  0  0  0  0  0  0  0  0  0
   -4.0357    0.7349  -10.5450 C   0  0  0  0  0  0  0  0  0  0  0  0
   -5.3771    0.8325  -10.4152 N   0  0  0  0  0  0  0  0  0  0  0  0
   -7.9820    2.9049   -8.8652 C   0  0  0  0  0  0  0  0  0  0  0  0
   -7.7101    4.8934  -15.7409 C   0  0  0  0  0  0  0  0  0  0  0  0
   -8.9057    4.3432  -16.0503 C   0  0  0  0  0  0  0  0  0  0  0  0
   -9.2312    3.9356  -17.4089 C   0  0  0  0  0  0  0  0  0  0  0  0
   -8.3215    4.1248  -18.3754 C   0  0  0  0  0  0  0  0  0  0  0  0
   -7.0856    4.6689  -18.0445 N   0  0  0  0  0  0  0  0  0  0  0  0
   -6.0232    4.9617  -18.8571 C   0  0  0  0  0  0  0  0  0  0  0  0
   -5.0341    5.4463  -18.0270 C   0  0  0  0  0  0  0  0  0  0  0  0
   -3.6567    5.8987  -18.4003 C   0  0  0  0  0  0  0  0  0  0  0  0
   -3.2665    7.1036  -17.6662 N   0  0  0  0  0  0  0  0  0  0  0  0
   -1.9116    7.5382  -17.9802 C   0  0  0  0  0  0  0  0  0  0  0  0
   -1.8586    8.9405  -17.3917 C   0  0  0  0  0  0  0  0  0  0  0  0
   -3.3105    9.4032  -17.3221 C   0  0  0  0  0  0  0  0  0  0  0  0
   -4.1201    8.2608  -17.9151 C   0  0  0  0  0  0  0  0  0  0  0  0
   -5.4808    5.4740  -16.7226 N   0  0  0  0  0  0  0  0  0  0  0  0
   -6.7221    5.0402  -16.7549 C   0  0  0  0  0  0  0  0  0  0  0  0
  1  2  2  0
  2  3  1  0
  3  4  1  0
  4  5  2  0
  5  6  1  0
  6  7  2  0
  7  8  1  0
  8  9  2  0
  9 10  1  0
 10 11  1  0
 11 12  1  0
 12 13  2  0
 13 14  1  0
 14 15  2  0
 15 16  1  0
 16 17  2  0
 11 18  1  0
  2 19  1  0
 19 20  2  0
 20 21  1  0
 21 22  2  0
 22 23  1  0
 23 24  1  0
 24 25  2  0
 25 26  1  0
 26 27  1  0
 27 28  1  0
 28 29  1  0
 29 30  1  0
 30 31  1  0
 25 32  1  0
 32 33  2  0
  9  4  1  0
 17 12  1  0
 33 19  1  0
 18  8  1  0
 33 23  1  0
 31 27  1  0
M  END
>  <name>  (472) 
P118404

>  <alias>  (472) 
None

>  <smina_score_min>  (472) 
-7.588

>  <exports>  (472) 
['/opt/xchem-fragalysis-2/maxwin/BulkDock/OUTPUTS/openbind_xx01zvns2b_c2_elabs_1LOUTNY.sdf', '/opt/xchem-fragalysis-2/maxwin/BulkDock/OUTPUTS/openbind_xx01zvns2b_c2_elabs_1LSYIIV.sdf']

>  <tags>  (472) 
syndirella_placed,openbind_xx01zvns2b_c2_elabs,openbind_xx01zvns2b_c2_elabs_scored_6.2plus,syndirella_product,openbind_xx01zvns2b_c2_elabs_scored,openbind_xx01zvns2b_c2_elabs_scored_top80percent,BulkDock Fragalysis export

>  <subsites>  (472) 
1 - Z4590/B/203/1

>  <smiles>  (472) 
O=C(Nc1cccc2c1CN(c1ccccn1)C2)c1cccn2cc(CN3CCCC3)nc12

>  <HIPPO Pose ID>  (472) 
118404

>  <energy_score>  (472) 
-25.229383

>  <inchikey>  (472) 
GPEMLECNEJYADC-UHFFFAOYSA-N

>  <gnina_score_min>  (472) 
6.386

>  <gnina_score>  (472) 
6.682

>  <ref_mols>  (472) 
Z3093a

>  <HIPPO Compound ID>  (472) 
182192

>  <distance_score>  (472) 
0.739761

>  <rmsd(smina/fragmenstein)>  (472) 
0.86

>  <ref_pdb>  (472) 
Z3093a

>  <inspiration_score>  (472) 
None

$$$$
P118407
     RDKit          3D

 33 37  0  0  0  0  0  0  0  0999 V2000
   -9.1101    5.3741   -5.5451 C   0  0  0  0  0  0  0  0  0  0  0  0
   -8.9747    5.1186   -6.9426 O   0  0  0  0  0  0  0  0  0  0  0  0
   -8.3951    6.1201   -7.6458 C   0  0  0  0  0  0  0  0  0  0  0  0
   -8.0059    7.1846   -7.1946 O   0  0  0  0  0  0  0  0  0  0  0  0
   -8.3521    5.7643   -9.0853 C   0  0  0  0  0  0  0  0  0  0  0  0
   -8.2993    6.7966  -10.0344 C   0  0  0  0  0  0  0  0  0  0  0  0
   -8.2091    6.5194  -11.4148 C   0  0  0  0  0  0  0  0  0  0  0  0
   -8.1915    5.2048  -11.8754 C   0  0  0  0  0  0  0  0  0  0  0  0
   -8.0927    4.8963  -13.2257 N   0  0  0  0  0  0  0  0  0  0  0  0
   -7.6364    5.7596  -14.4202 C   0  0  0  0  0  0  0  0  0  0  0  0
   -7.3451    6.8877  -14.4696 O   0  0  0  0  0  0  0  0  0  0  0  0
   -7.7063    4.9390  -15.6807 C   0  0  0  0  0  0  0  0  0  0  0  0
   -8.8949    4.3739  -15.9970 C   0  0  0  0  0  0  0  0  0  0  0  0
   -9.2105    3.9453  -17.3517 C   0  0  0  0  0  0  0  0  0  0  0  0
   -8.2990    4.1309  -18.3159 C   0  0  0  0  0  0  0  0  0  0  0  0
   -7.0684    4.6829  -17.9827 N   0  0  0  0  0  0  0  0  0  0  0  0
   -6.0064    4.9712  -18.7970 C   0  0  0  0  0  0  0  0  0  0  0  0
   -5.0187    5.4609  -17.9691 C   0  0  0  0  0  0  0  0  0  0  0  0
   -3.6402    5.9055  -18.3463 C   0  0  0  0  0  0  0  0  0  0  0  0
   -3.2515    7.1237  -17.6338 N   0  0  0  0  0  0  0  0  0  0  0  0
   -1.8991    7.5569  -17.9600 C   0  0  0  0  0  0  0  0  0  0  0  0
   -1.8485    8.9685  -17.3944 C   0  0  0  0  0  0  0  0  0  0  0  0
   -3.3014    9.4285  -17.3292 C   0  0  0  0  0  0  0  0  0  0  0  0
   -4.1096    8.2739  -17.9000 C   0  0  0  0  0  0  0  0  0  0  0  0
   -5.4687    5.5041  -16.6656 N   0  0  0  0  0  0  0  0  0  0  0  0
   -6.7111    5.0702  -16.6943 C   0  0  0  0  0  0  0  0  0  0  0  0
   -8.2520    4.2097  -10.9247 C   0  0  0  0  0  0  0  0  0  0  0  0
   -8.2960    4.4605   -9.5507 C   0  0  0  0  0  0  0  0  0  0  0  0
   -8.0851    3.1858   -8.8078 C   0  0  0  0  0  0  0  0  0  0  0  0
   -7.7020    2.2878   -9.8758 N   0  0  0  0  0  0  0  0  0  0  0  0
   -6.6786    1.3004   -9.6909 C   0  0  0  0  0  0  0  0  0  0  0  0
   -7.9331    2.8050  -11.1260 C   0  0  0  0  0  0  0  0  0  0  0  0
   -7.7746    2.2892  -12.2146 O   0  0  0  0  0  0  0  0  0  0  0  0
  1  2  1  0
  2  3  1  0
  3  4  2  0
  3  5  1  0
  5  6  2  0
  6  7  1  0
  7  8  2  0
  8  9  1  0
  9 10  1  0
 10 11  2  0
 10 12  1  0
 12 13  2  0
 13 14  1  0
 14 15  2  0
 15 16  1  0
 16 17  1  0
 17 18  2  0
 18 19  1  0
 19 20  1  0
 20 21  1  0
 21 22  1  0
 22 23  1  0
 23 24  1  0
 18 25  1  0
 25 26  2  0
  8 27  1  0
 27 28  2  0
 28 29  1  0
 29 30  1  0
 30 31  1  0
 30 32  1  0
 32 33  2  0
 28  5  1  0
 26 12  1  0
 32 27  1  0
 26 16  1  0
 24 20  1  0
M  END
>  <name>  (473) 
P118407

>  <alias>  (473) 
None

>  <smina_score_min>  (473) 
-6.715

>  <exports>  (473) 
['/opt/xchem-fragalysis-2/maxwin/BulkDock/OUTPUTS/openbind_xx01zvns2b_c2_elabs_1LOUTNY.sdf', '/opt/xchem-fragalysis-2/maxwin/BulkDock/OUTPUTS/openbind_xx01zvns2b_c2_elabs_1LSYIIV.sdf']

>  <tags>  (473) 
syndirella_placed,openbind_xx01zvns2b_c2_elabs,openbind_xx01zvns2b_c2_elabs_scored_6.2plus,syndirella_product,openbind_xx01zvns2b_c2_elabs_scored,openbind_xx01zvns2b_c2_elabs_scored_top80percent,BulkDock Fragalysis export

>  <subsites>  (473) 
1 - Z4590/B/203/1

>  <smiles>  (473) 
COC(=O)c1ccc(NC(=O)c2cccn3cc(CN4CCCC4)nc23)c2c1CN(C)C2=O

>  <HIPPO Pose ID>  (473) 
118407

>  <energy_score>  (473) 
-37.451903

>  <inchikey>  (473) 
RPCCRSBLMOPPSR-UHFFFAOYSA-N

>  <gnina_score_min>  (473) 
6.205

>  <gnina_score>  (473) 
6.212

>  <ref_mols>  (473) 
Z3093a

>  <HIPPO Compound ID>  (473) 
182197

>  <distance_score>  (473) 
0.796086

>  <rmsd(smina/fragmenstein)>  (473) 
0.967

>  <ref_pdb>  (473) 
Z3093a

>  <inspiration_score>  (473) 
None

$$$$
P118413
     RDKit          3D

 33 37  0  0  0  0  0  0  0  0999 V2000
   -8.7484    5.0481   -4.0955 C   0  0  0  0  0  0  0  0  0  0  0  0
   -9.6854    3.9584   -3.6130 C   0  0  0  0  0  0  0  0  0  0  0  0
  -10.7142    3.7419   -4.5733 O   0  0  0  0  0  0  0  0  0  0  0  0
  -10.7440    2.4323   -5.1540 C   0  0  0  0  0  0  0  0  0  0  0  0
   -9.5771    2.1870   -6.0820 C   0  0  0  0  0  0  0  0  0  0  0  0
   -9.6017    3.1752   -7.2223 C   0  0  0  0  0  0  0  0  0  0  0  0
   -8.2677    3.1804   -7.7973 N   0  0  0  0  0  0  0  0  0  0  0  0
   -7.7726    4.5449   -8.0423 C   0  0  0  0  0  0  0  0  0  0  0  0
   -7.9349    4.7629   -9.4997 C   0  0  0  0  0  0  0  0  0  0  0  0
   -7.7739    5.9239  -10.2222 C   0  0  0  0  0  0  0  0  0  0  0  0
   -7.8497    5.8252  -11.6054 C   0  0  0  0  0  0  0  0  0  0  0  0
   -8.0867    4.5839  -12.2232 C   0  0  0  0  0  0  0  0  0  0  0  0
   -8.0679    4.4765  -13.5988 N   0  0  0  0  0  0  0  0  0  0  0  0
   -7.6616    5.5008  -14.6782 C   0  0  0  0  0  0  0  0  0  0  0  0
   -7.3525    6.6205  -14.5791 O   0  0  0  0  0  0  0  0  0  0  0  0
   -7.8079    4.8434  -16.0044 C   0  0  0  0  0  0  0  0  0  0  0  0
   -8.9904    4.2869  -16.3434 C   0  0  0  0  0  0  0  0  0  0  0  0
   -9.2666    3.8652  -17.7027 C   0  0  0  0  0  0  0  0  0  0  0  0
   -8.3241    4.0532  -18.6374 C   0  0  0  0  0  0  0  0  0  0  0  0
   -7.1055    4.6183  -18.2748 N   0  0  0  0  0  0  0  0  0  0  0  0
   -6.0167    4.9205  -19.0480 C   0  0  0  0  0  0  0  0  0  0  0  0
   -5.0597    5.4150  -18.1865 C   0  0  0  0  0  0  0  0  0  0  0  0
   -3.6736    5.8792  -18.5120 C   0  0  0  0  0  0  0  0  0  0  0  0
   -3.2910    7.0533  -17.7242 N   0  0  0  0  0  0  0  0  0  0  0  0
   -4.1353    8.2235  -17.9444 C   0  0  0  0  0  0  0  0  0  0  0  0
   -3.3301    9.3414  -17.3001 C   0  0  0  0  0  0  0  0  0  0  0  0
   -1.8795    8.8736  -17.3604 C   0  0  0  0  0  0  0  0  0  0  0  0
   -1.9291    7.4934  -17.9994 C   0  0  0  0  0  0  0  0  0  0  0  0
   -5.5510    5.4361  -16.9006 N   0  0  0  0  0  0  0  0  0  0  0  0
   -6.7882    4.9972  -16.9796 C   0  0  0  0  0  0  0  0  0  0  0  0
   -8.2993    3.4303  -11.4787 C   0  0  0  0  0  0  0  0  0  0  0  0
   -8.2046    3.5401  -10.1132 C   0  0  0  0  0  0  0  0  0  0  0  0
   -8.2575    2.4598   -9.0889 C   0  0  0  0  0  0  0  0  0  0  0  0
  1  2  1  0
  2  3  1  0
  3  4  1  0
  4  5  1  0
  5  6  1  0
  6  7  1  0
  7  8  1  0
  8  9  1  0
  9 10  2  0
 10 11  1  0
 11 12  2  0
 12 13  1  0
 13 14  1  0
 14 15  2  0
 14 16  1  0
 16 17  2  0
 17 18  1  0
 18 19  2  0
 19 20  1  0
 20 21  1  0
 21 22  2  0
 22 23  1  0
 23 24  1  0
 24 25  1  0
 25 26  1  0
 26 27  1  0
 27 28  1  0
 22 29  1  0
 29 30  2  0
 12 31  1  0
 31 32  2  0
 32 33  1  0
 33  7  1  0
 32  9  1  0
 30 16  1  0
 30 20  1  0
 28 24  1  0
M  END
>  <name>  (474) 
P118413

>  <alias>  (474) 
None

>  <smina_score_min>  (474) 
-7.12

>  <exports>  (474) 
['/opt/xchem-fragalysis-2/maxwin/BulkDock/OUTPUTS/openbind_xx01zvns2b_c2_elabs_1LOUTNY.sdf', '/opt/xchem-fragalysis-2/maxwin/BulkDock/OUTPUTS/openbind_xx01zvns2b_c2_elabs_1LSYIIV.sdf']

>  <tags>  (474) 
syndirella_placed,openbind_xx01zvns2b_c2_elabs,openbind_xx01zvns2b_c2_elabs_scored_6.2plus,syndirella_product,openbind_xx01zvns2b_c2_elabs_scored,openbind_xx01zvns2b_c2_elabs_scored_top80percent,BulkDock Fragalysis export

>  <subsites>  (474) 
1 - Z4590/B/203/1

>  <smiles>  (474) 
CCOCCCN1Cc2ccc(NC(=O)c3cccn4cc(CN5CCCC5)nc34)cc2C1

>  <HIPPO Pose ID>  (474) 
118413

>  <energy_score>  (474) 
-31.538444

>  <inchikey>  (474) 
WFVXVVSRKWPGLC-UHFFFAOYSA-N

>  <gnina_score_min>  (474) 
6.232

>  <gnina_score>  (474) 
6.307

>  <ref_mols>  (474) 
Z3093a

>  <HIPPO Compound ID>  (474) 
182207

>  <distance_score>  (474) 
0.647011

>  <rmsd(smina/fragmenstein)>  (474) 
0.492

>  <ref_pdb>  (474) 
Z3093a

>  <inspiration_score>  (474) 
None

$$$$
P118416
     RDKit          3D

 33 37  0  0  0  0  0  0  0  0999 V2000
   -6.1698    3.1915  -11.8497 C   0  0  0  0  0  0  0  0  0  0  0  0
   -7.6456    3.4543  -12.0872 C   0  0  2  0  0  0  0  0  0  0  0  0
   -7.8944    3.8354  -13.4478 N   0  0  0  0  0  0  0  0  0  0  0  0
   -7.4035    5.0601  -14.2533 C   0  0  0  0  0  0  0  0  0  0  0  0
   -6.7849    5.9883  -13.9148 O   0  0  0  0  0  0  0  0  0  0  0  0
   -7.7833    4.8210  -15.6943 C   0  0  0  0  0  0  0  0  0  0  0  0
   -9.0163    4.3864  -16.0363 C   0  0  0  0  0  0  0  0  0  0  0  0
   -9.3872    4.1049  -17.4132 C   0  0  0  0  0  0  0  0  0  0  0  0
   -8.4640    4.2627  -18.3720 C   0  0  0  0  0  0  0  0  0  0  0  0
   -7.1973    4.7215  -18.0256 N   0  0  0  0  0  0  0  0  0  0  0  0
   -6.1230    4.9868  -18.8332 C   0  0  0  0  0  0  0  0  0  0  0  0
   -5.1163    5.4211  -17.9975 C   0  0  0  0  0  0  0  0  0  0  0  0
   -3.7259    5.8409  -18.3637 C   0  0  0  0  0  0  0  0  0  0  0  0
   -3.3289    7.0616  -17.6597 N   0  0  0  0  0  0  0  0  0  0  0  0
   -4.1540    8.2260  -17.9602 C   0  0  0  0  0  0  0  0  0  0  0  0
   -3.3372    9.3675  -17.3756 C   0  0  0  0  0  0  0  0  0  0  0  0
   -1.8915    8.8821  -17.4140 C   0  0  0  0  0  0  0  0  0  0  0  0
   -1.9589    7.4613  -17.9557 C   0  0  0  0  0  0  0  0  0  0  0  0
   -5.5556    5.4207  -16.6914 N   0  0  0  0  0  0  0  0  0  0  0  0
   -6.8098    5.0209  -16.7225 C   0  0  0  0  0  0  0  0  0  0  0  0
   -8.1384    4.3059  -10.9526 C   0  0  0  0  0  0  0  0  0  0  0  0
   -7.9724    5.6822  -10.8574 C   0  0  0  0  0  0  0  0  0  0  0  0
   -8.1130    6.3019   -9.6210 C   0  0  0  0  0  0  0  0  0  0  0  0
   -8.4151    5.5550   -8.4802 C   0  0  0  0  0  0  0  0  0  0  0  0
   -8.6861    4.1945   -8.5599 C   0  0  0  0  0  0  0  0  0  0  0  0
   -8.9075    3.3680   -7.4070 N   0  0  0  0  0  0  0  0  0  0  0  0
   -9.6213    2.0833   -7.6134 C   0  0  0  0  0  0  0  0  0  0  0  0
   -9.9254    1.5408   -6.2384 C   0  0  0  0  0  0  0  0  0  0  0  0
  -10.3708    2.7024   -5.3880 C   0  0  0  0  0  0  0  0  0  0  0  0
   -9.3321    4.0523   -5.8955 S   0  0  0  0  0  0  0  0  0  0  0  0
  -10.1905    5.2084   -6.0646 O   0  0  0  0  0  0  0  0  0  0  0  0
   -8.1475    4.1203   -5.0637 O   0  0  0  0  0  0  0  0  0  0  0  0
   -8.5217    3.5892   -9.8017 C   0  0  0  0  0  0  0  0  0  0  0  0
  2  1  1  6
  2  3  1  0
  3  4  1  0
  4  5  2  0
  4  6  1  0
  6  7  2  0
  7  8  1  0
  8  9  2  0
  9 10  1  0
 10 11  1  0
 11 12  2  0
 12 13  1  0
 13 14  1  0
 14 15  1  0
 15 16  1  0
 16 17  1  0
 17 18  1  0
 12 19  1  0
 19 20  2  0
  2 21  1  0
 21 22  2  0
 22 23  1  0
 23 24  2  0
 24 25  1  0
 25 26  1  0
 26 27  1  0
 27 28  1  0
 28 29  1  0
 29 30  1  0
 30 31  2  0
 30 32  2  0
 25 33  2  0
 20  6  1  0
 33 21  1  0
 20 10  1  0
 30 26  1  0
 18 14  1  0
M  END
>  <name>  (475) 
P118416

>  <alias>  (475) 
None

>  <smina_score_min>  (475) 
-8.178

>  <exports>  (475) 
['/opt/xchem-fragalysis-2/maxwin/BulkDock/OUTPUTS/openbind_xx01zvns2b_c2_elabs_1LOUTNY.sdf', '/opt/xchem-fragalysis-2/maxwin/BulkDock/OUTPUTS/openbind_xx01zvns2b_c2_elabs_1LSYIIV.sdf']

>  <tags>  (475) 
syndirella_placed,openbind_xx01zvns2b_c2_elabs,openbind_xx01zvns2b_c2_elabs_scored_6.2plus,syndirella_product,openbind_xx01zvns2b_c2_elabs_scored,openbind_xx01zvns2b_c2_elabs_scored_top80percent,BulkDock Fragalysis export

>  <subsites>  (475) 
1 - Z4590/B/203/1

>  <smiles>  (475) 
C[C@H](NC(=O)c1cccn2cc(CN3CCCC3)nc12)c1cccc(N2CCCS2(=O)=O)c1

>  <HIPPO Pose ID>  (475) 
118416

>  <energy_score>  (475) 
-41.849124

>  <inchikey>  (475) 
FNSQXMHARHMFFU-SFHVURJKSA-N

>  <gnina_score_min>  (475) 
6.294

>  <gnina_score>  (475) 
6.309

>  <ref_mols>  (475) 
Z3093a

>  <HIPPO Compound ID>  (475) 
182210

>  <distance_score>  (475) 
1.080313

>  <rmsd(smina/fragmenstein)>  (475) 
0.346

>  <ref_pdb>  (475) 
Z3093a

>  <inspiration_score>  (475) 
None

$$$$
P118421
     RDKit          3D

 33 37  0  0  0  0  0  0  0  0999 V2000
   -8.1626    5.0907   -4.2576 C   0  0  0  0  0  0  0  0  0  0  0  0
   -8.4468    3.8159   -5.0423 C   0  0  2  0  0  0  0  0  0  0  0  0
   -8.6061    4.1134   -6.5428 C   0  0  0  0  0  0  0  0  0  0  0  0
   -8.7165    2.9090   -7.3503 N   0  0  0  0  0  0  0  0  0  0  0  0
   -9.1593    2.9560   -8.7449 C   0  0  0  0  0  0  0  0  0  0  0  0
   -8.6038    4.0345   -9.6761 C   0  0  0  0  0  0  0  0  0  0  0  0
   -8.4788    5.3796   -9.2917 C   0  0  0  0  0  0  0  0  0  0  0  0
   -8.0372    6.3649  -10.1636 C   0  0  0  0  0  0  0  0  0  0  0  0
   -7.7792    6.0378  -11.4799 C   0  0  0  0  0  0  0  0  0  0  0  0
   -7.9702    4.7332  -11.9341 C   0  0  0  0  0  0  0  0  0  0  0  0
   -7.8354    4.4894  -13.2986 N   0  0  0  0  0  0  0  0  0  0  0  0
   -7.4858    5.4539  -14.4660 C   0  0  0  0  0  0  0  0  0  0  0  0
   -7.1821    6.5837  -14.4507 O   0  0  0  0  0  0  0  0  0  0  0  0
   -7.6895    4.7641  -15.7748 C   0  0  0  0  0  0  0  0  0  0  0  0
   -8.9092    4.2690  -16.0773 C   0  0  0  0  0  0  0  0  0  0  0  0
   -9.2710    3.9214  -17.4437 C   0  0  0  0  0  0  0  0  0  0  0  0
   -8.3743    4.1181  -18.4216 C   0  0  0  0  0  0  0  0  0  0  0  0
   -7.1187    4.6216  -18.1000 N   0  0  0  0  0  0  0  0  0  0  0  0
   -6.0658    4.9282  -18.9211 C   0  0  0  0  0  0  0  0  0  0  0  0
   -5.0571    5.3791  -18.0954 C   0  0  0  0  0  0  0  0  0  0  0  0
   -3.6871    5.8480  -18.4772 C   0  0  0  0  0  0  0  0  0  0  0  0
   -3.2897    7.0349  -17.7165 N   0  0  0  0  0  0  0  0  0  0  0  0
   -1.9416    7.4843  -18.0395 C   0  0  0  0  0  0  0  0  0  0  0  0
   -1.8846    8.8694  -17.4118 C   0  0  0  0  0  0  0  0  0  0  0  0
   -3.3364    9.3277  -17.3163 C   0  0  0  0  0  0  0  0  0  0  0  0
   -4.1518    8.1948  -17.9205 C   0  0  0  0  0  0  0  0  0  0  0  0
   -5.4738    5.3500  -16.7828 N   0  0  0  0  0  0  0  0  0  0  0  0
   -6.7217    4.9330  -16.8066 C   0  0  0  0  0  0  0  0  0  0  0  0
   -8.3573    3.7289  -11.0354 C   0  0  0  0  0  0  0  0  0  0  0  0
   -9.3121    1.8022   -6.5871 C   0  0  0  0  0  0  0  0  0  0  0  0
  -10.1322    2.1602   -5.3142 C   0  0  2  0  0  0  0  0  0  0  0  0
  -11.5883    2.4033   -5.5827 C   0  0  0  0  0  0  0  0  0  0  0  0
   -9.6700    3.2815   -4.5416 O   0  0  0  0  0  0  0  0  0  0  0  0
  2  1  1  1
  2  3  1  0
  3  4  1  0
  4  5  1  0
  5  6  1  0
  6  7  2  0
  7  8  1  0
  8  9  2  0
  9 10  1  0
 10 11  1  0
 11 12  1  0
 12 13  2  0
 12 14  1  0
 14 15  2  0
 15 16  1  0
 16 17  2  0
 17 18  1  0
 18 19  1  0
 19 20  2  0
 20 21  1  0
 21 22  1  0
 22 23  1  0
 23 24  1  0
 24 25  1  0
 25 26  1  0
 20 27  1  0
 27 28  2  0
 10 29  2  0
  4 30  1  0
 30 31  1  0
 31 32  1  6
 31 33  1  0
 33  2  1  0
 29  6  1  0
 28 14  1  0
 28 18  1  0
 26 22  1  0
M  END
>  <name>  (476) 
P118421

>  <alias>  (476) 
None

>  <smina_score_min>  (476) 
-7.466

>  <exports>  (476) 
['/opt/xchem-fragalysis-2/maxwin/BulkDock/OUTPUTS/openbind_xx01zvns2b_c2_elabs_1LOUTNY.sdf', '/opt/xchem-fragalysis-2/maxwin/BulkDock/OUTPUTS/openbind_xx01zvns2b_c2_elabs_1LSYIIV.sdf']

>  <tags>  (476) 
syndirella_placed,openbind_xx01zvns2b_c2_elabs,openbind_xx01zvns2b_c2_elabs_scored_6.2plus,syndirella_product,openbind_xx01zvns2b_c2_elabs_scored,openbind_xx01zvns2b_c2_elabs_scored_top80percent,BulkDock Fragalysis export

>  <subsites>  (476) 
1 - Z4590/B/203/1

>  <smiles>  (476) 
C[C@@H]1CN(Cc2cccc(NC(=O)c3cccn4cc(CN5CCCC5)nc34)c2)C[C@H](C)O1

>  <HIPPO Pose ID>  (476) 
118421

>  <energy_score>  (476) 
-26.656282

>  <inchikey>  (476) 
ACKWOPQSNYINSB-BGYRXZFFSA-N

>  <gnina_score_min>  (476) 
6.218

>  <gnina_score>  (476) 
6.053

>  <ref_mols>  (476) 
Z3093a

>  <HIPPO Compound ID>  (476) 
182213

>  <distance_score>  (476) 
0.567417

>  <rmsd(smina/fragmenstein)>  (476) 
0.366

>  <ref_pdb>  (476) 
Z3093a

>  <inspiration_score>  (476) 
None

$$$$
P118439
     RDKit          3D

 35 40  0  0  0  0  0  0  0  0999 V2000
  -10.3006    4.0641   -3.2409 O   0  0  0  0  0  0  0  0  0  0  0  0
  -10.0411    3.5588   -4.3225 C   0  0  0  0  0  0  0  0  0  0  0  0
   -8.8556    3.9187   -5.1408 C   0  0  0  0  0  0  0  0  0  0  0  0
   -8.8193    2.8542   -6.2355 C   0  0  2  0  0  0  0  0  0  0  0  0
   -8.6580    3.3937   -7.5764 N   0  0  0  0  0  0  0  0  0  0  0  0
   -8.9267    2.6016   -8.7801 C   0  0  0  0  0  0  0  0  0  0  0  0
   -8.4404    3.5122   -9.8630 C   0  0  0  0  0  0  0  0  0  0  0  0
   -8.5099    3.3902  -11.2398 C   0  0  0  0  0  0  0  0  0  0  0  0
   -8.0010    4.4389  -12.0179 C   0  0  0  0  0  0  0  0  0  0  0  0
   -8.0325    4.3499  -13.4035 N   0  0  0  0  0  0  0  0  0  0  0  0
   -7.6447    5.3902  -14.4898 C   0  0  0  0  0  0  0  0  0  0  0  0
   -7.3130    6.5065  -14.3855 O   0  0  0  0  0  0  0  0  0  0  0  0
   -7.8224    4.7781  -15.8415 C   0  0  0  0  0  0  0  0  0  0  0  0
   -9.0183    4.2604  -16.1930 C   0  0  0  0  0  0  0  0  0  0  0  0
   -9.3218    3.9040  -17.5679 C   0  0  0  0  0  0  0  0  0  0  0  0
   -8.3874    4.1047  -18.5078 C   0  0  0  0  0  0  0  0  0  0  0  0
   -7.1539    4.6300  -18.1394 N   0  0  0  0  0  0  0  0  0  0  0  0
   -6.0711    4.9354  -18.9201 C   0  0  0  0  0  0  0  0  0  0  0  0
   -5.0972    5.3958  -18.0589 C   0  0  0  0  0  0  0  0  0  0  0  0
   -3.7082    5.8457  -18.3942 C   0  0  0  0  0  0  0  0  0  0  0  0
   -3.3301    7.0490  -17.6502 N   0  0  0  0  0  0  0  0  0  0  0  0
   -4.1707    8.2105  -17.9229 C   0  0  0  0  0  0  0  0  0  0  0  0
   -3.3684    9.3509  -17.3158 C   0  0  0  0  0  0  0  0  0  0  0  0
   -1.9174    8.8820  -17.3543 C   0  0  0  0  0  0  0  0  0  0  0  0
   -1.9655    7.4763  -17.9352 C   0  0  0  0  0  0  0  0  0  0  0  0
   -5.5708    5.3877  -16.7642 N   0  0  0  0  0  0  0  0  0  0  0  0
   -6.8142    4.9599  -16.8335 C   0  0  0  0  0  0  0  0  0  0  0  0
   -7.4411    5.5832  -11.4151 C   0  0  0  0  0  0  0  0  0  0  0  0
   -7.3424    5.6853  -10.0334 C   0  0  0  0  0  0  0  0  0  0  0  0
   -7.8378    4.6328   -9.2981 C   0  0  0  0  0  0  0  0  0  0  0  0
   -7.8485    4.4814   -7.8515 C   0  0  0  0  0  0  0  0  0  0  0  0
   -7.2494    5.2136   -7.0855 O   0  0  0  0  0  0  0  0  0  0  0  0
  -10.1165    2.1002   -6.0371 C   0  0  0  0  0  0  0  0  0  0  0  0
  -10.5164    1.1613   -6.7044 O   0  0  0  0  0  0  0  0  0  0  0  0
  -10.7758    2.6304   -4.9799 N   0  0  0  0  0  0  0  0  0  0  0  0
  1  2  2  0
  2  3  1  0
  3  4  1  0
  4  5  1  6
  5  6  1  0
  6  7  1  0
  7  8  2  0
  8  9  1  0
  9 10  1  0
 10 11  1  0
 11 12  2  0
 11 13  1  0
 13 14  2  0
 14 15  1  0
 15 16  2  0
 16 17  1  0
 17 18  1  0
 18 19  2  0
 19 20  1  0
 20 21  1  0
 21 22  1  0
 22 23  1  0
 23 24  1  0
 24 25  1  0
 19 26  1  0
 26 27  2  0
  9 28  2  0
 28 29  1  0
 29 30  2  0
 30 31  1  0
 31 32  2  0
  4 33  1  0
 33 34  2  0
 33 35  1  0
 35  2  1  0
 31  5  1  0
 30  7  1  0
 27 13  1  0
 27 17  1  0
 25 21  1  0
M  END
>  <name>  (477) 
P118439

>  <alias>  (477) 
None

>  <smina_score_min>  (477) 
-9.134

>  <exports>  (477) 
['/opt/xchem-fragalysis-2/maxwin/BulkDock/OUTPUTS/openbind_xx01zvns2b_c2_elabs_1LOUTNY.sdf', '/opt/xchem-fragalysis-2/maxwin/BulkDock/OUTPUTS/openbind_xx01zvns2b_c2_elabs_1LSYIIV.sdf']

>  <tags>  (477) 
syndirella_placed,openbind_xx01zvns2b_c2_elabs,openbind_xx01zvns2b_c2_elabs_scored_6.2plus,syndirella_product,openbind_xx01zvns2b_c2_elabs_scored,openbind_xx01zvns2b_c2_elabs_scored_top80percent,BulkDock Fragalysis export

>  <subsites>  (477) 
1 - Z4590/B/203/1

>  <smiles>  (477) 
O=C1C[C@H](N2Cc3cc(NC(=O)c4cccn5cc(CN6CCCC6)nc45)ccc3C2=O)C(=O)N1

>  <HIPPO Pose ID>  (477) 
118439

>  <energy_score>  (477) 
-49.616759

>  <inchikey>  (477) 
UEQVKSVWALOOLZ-FQEVSTJZSA-N

>  <gnina_score_min>  (477) 
6.319

>  <gnina_score>  (477) 
6.231

>  <ref_mols>  (477) 
Z3093a

>  <HIPPO Compound ID>  (477) 
182246

>  <distance_score>  (477) 
0.587621

>  <rmsd(smina/fragmenstein)>  (477) 
0.754

>  <ref_pdb>  (477) 
Z3093a

>  <inspiration_score>  (477) 
None

$$$$
P118445
     RDKit          3D

 35 39  0  0  0  0  0  0  0  0999 V2000
   -3.8298    2.7847  -11.7150 C   0  0  0  0  0  0  0  0  0  0  0  0
   -3.6725    2.0453  -10.3806 C   0  0  0  0  0  0  0  0  0  0  0  0
   -2.9541    0.7200  -10.6332 C   0  0  0  0  0  0  0  0  0  0  0  0
   -2.8285    2.8450   -9.3766 C   0  0  0  0  0  0  0  0  0  0  0  0
   -4.9761    1.6673   -9.8617 O   0  0  0  0  0  0  0  0  0  0  0  0
   -5.8320    2.6466   -9.4542 C   0  0  0  0  0  0  0  0  0  0  0  0
   -5.5162    3.7555   -9.3147 O   0  0  0  0  0  0  0  0  0  0  0  0
   -7.1995    1.9824   -9.3196 N   0  0  0  0  0  0  0  0  0  0  0  0
   -8.4960    2.5538   -9.0763 C   0  0  1  0  0  0  0  0  0  0  0  0
   -8.6963    3.2595   -7.7267 C   0  0  0  0  0  0  0  0  0  0  0  0
   -8.2916    4.7320   -7.9038 C   0  0  0  0  0  0  0  0  0  0  0  0
   -8.4424    4.9257   -9.3805 C   0  0  0  0  0  0  0  0  0  0  0  0
   -8.2335    6.0792  -10.1130 C   0  0  0  0  0  0  0  0  0  0  0  0
   -8.1536    5.9716  -11.5063 C   0  0  0  0  0  0  0  0  0  0  0  0
   -8.3072    4.7278  -12.1392 C   0  0  0  0  0  0  0  0  0  0  0  0
   -8.1029    4.5594  -13.4975 N   0  0  0  0  0  0  0  0  0  0  0  0
   -7.6670    5.5715  -14.5792 C   0  0  0  0  0  0  0  0  0  0  0  0
   -7.3377    6.6861  -14.4826 O   0  0  0  0  0  0  0  0  0  0  0  0
   -7.7990    4.8985  -15.9090 C   0  0  0  0  0  0  0  0  0  0  0  0
   -8.9796    4.3350  -16.2489 C   0  0  0  0  0  0  0  0  0  0  0  0
   -9.2616    3.9076  -17.6069 C   0  0  0  0  0  0  0  0  0  0  0  0
   -8.3221    4.0901  -18.5450 C   0  0  0  0  0  0  0  0  0  0  0  0
   -7.1025    4.6538  -18.1855 N   0  0  0  0  0  0  0  0  0  0  0  0
   -6.0167    4.9441  -18.9675 C   0  0  0  0  0  0  0  0  0  0  0  0
   -5.0549    5.4422  -18.1140 C   0  0  0  0  0  0  0  0  0  0  0  0
   -3.6679    5.8950  -18.4507 C   0  0  0  0  0  0  0  0  0  0  0  0
   -3.2815    7.0835  -17.6889 N   0  0  0  0  0  0  0  0  0  0  0  0
   -1.9202    7.5171  -17.9748 C   0  0  0  0  0  0  0  0  0  0  0  0
   -1.8677    8.9081  -17.3602 C   0  0  0  0  0  0  0  0  0  0  0  0
   -3.3179    9.3772  -17.3015 C   0  0  0  0  0  0  0  0  0  0  0  0
   -4.1258    8.2502  -17.9255 C   0  0  0  0  0  0  0  0  0  0  0  0
   -5.5421    5.4806  -16.8259 N   0  0  0  0  0  0  0  0  0  0  0  0
   -6.7812    5.0440  -16.8919 C   0  0  0  0  0  0  0  0  0  0  0  0
   -8.5967    3.5888  -11.4040 C   0  0  0  0  0  0  0  0  0  0  0  0
   -8.6284    3.7003  -10.0270 C   0  0  0  0  0  0  0  0  0  0  0  0
  1  2  1  0
  2  3  1  0
  2  4  1  0
  2  5  1  0
  5  6  1  0
  6  7  2  0
  6  8  1  0
  9  8  1  1
  9 10  1  0
 10 11  1  0
 11 12  1  0
 12 13  2  0
 13 14  1  0
 14 15  2  0
 15 16  1  0
 16 17  1  0
 17 18  2  0
 17 19  1  0
 19 20  2  0
 20 21  1  0
 21 22  2  0
 22 23  1  0
 23 24  1  0
 24 25  2  0
 25 26  1  0
 26 27  1  0
 27 28  1  0
 28 29  1  0
 29 30  1  0
 30 31  1  0
 25 32  1  0
 32 33  2  0
 15 34  1  0
 34 35  2  0
 35  9  1  0
 35 12  1  0
 33 19  1  0
 33 23  1  0
 31 27  1  0
M  END
>  <name>  (478) 
P118445

>  <alias>  (478) 
None

>  <smina_score_min>  (478) 
-7.326

>  <exports>  (478) 
['/opt/xchem-fragalysis-2/maxwin/BulkDock/OUTPUTS/openbind_xx01zvns2b_c2_elabs_1LOUTNY.sdf', '/opt/xchem-fragalysis-2/maxwin/BulkDock/OUTPUTS/openbind_xx01zvns2b_c2_elabs_1LSYIIV.sdf']

>  <tags>  (478) 
syndirella_placed,openbind_xx01zvns2b_c2_elabs,openbind_xx01zvns2b_c2_elabs_scored_6.2plus,syndirella_product,openbind_xx01zvns2b_c2_elabs_scored,openbind_xx01zvns2b_c2_elabs_scored_top80percent,BulkDock Fragalysis export

>  <subsites>  (478) 
1 - Z4590/B/203/1

>  <smiles>  (478) 
CC(C)(C)OC(=O)N[C@H]1CCc2ccc(NC(=O)c3cccn4cc(CN5CCCC5)nc34)cc21

>  <HIPPO Pose ID>  (478) 
118445

>  <energy_score>  (478) 
-14.906546

>  <inchikey>  (478) 
KZTQMFRDPCWJOS-QHCPKHFHSA-N

>  <gnina_score_min>  (478) 
6.785

>  <gnina_score>  (478) 
6.782

>  <ref_mols>  (478) 
Z3093a

>  <HIPPO Compound ID>  (478) 
182261

>  <distance_score>  (478) 
0.574588

>  <rmsd(smina/fragmenstein)>  (478) 
0.7

>  <ref_pdb>  (478) 
Z3093a

>  <inspiration_score>  (478) 
None

$$$$
P118451
     RDKit          3D

 36 39  0  0  0  0  0  0  0  0999 V2000
   -1.9243    3.1891   -9.5570 C   0  0  0  0  0  0  0  0  0  0  0  0
   -2.0181    2.3610  -10.8444 C   0  0  0  0  0  0  0  0  0  0  0  0
   -1.5311    0.9250  -10.6356 C   0  0  0  0  0  0  0  0  0  0  0  0
   -1.1417    3.0247  -11.9152 C   0  0  0  0  0  0  0  0  0  0  0  0
   -3.3592    2.3952  -11.3946 O   0  0  0  0  0  0  0  0  0  0  0  0
   -4.4090    1.8969  -10.6884 C   0  0  0  0  0  0  0  0  0  0  0  0
   -4.3249    1.3640   -9.6635 O   0  0  0  0  0  0  0  0  0  0  0  0
   -5.6305    2.2741  -11.5040 N   0  0  0  0  0  0  0  0  0  0  0  0
   -7.0276    2.1644  -11.1967 C   0  0  0  0  0  0  0  0  0  0  0  0
   -7.5874    3.5058  -10.8034 C   0  0  0  0  0  0  0  0  0  0  0  0
   -7.8453    3.7179   -9.4290 C   0  0  0  0  0  0  0  0  0  0  0  0
   -8.1684    4.9930   -8.9627 C   0  0  0  0  0  0  0  0  0  0  0  0
   -8.3882    5.2217   -7.5344 N   0  0  0  0  0  0  0  0  0  0  0  0
   -8.1964    6.3701   -7.1036 O   0  0  0  0  0  0  0  0  0  0  0  0
   -8.7665    4.2695   -6.8422 O   0  0  0  0  0  0  0  0  0  0  0  0
   -8.2453    6.0691   -9.8450 C   0  0  0  0  0  0  0  0  0  0  0  0
   -8.0308    5.8533  -11.2075 C   0  0  0  0  0  0  0  0  0  0  0  0
   -7.7265    4.5777  -11.7068 C   0  0  0  0  0  0  0  0  0  0  0  0
   -7.6093    4.4172  -13.0968 N   0  0  0  0  0  0  0  0  0  0  0  0
   -7.6597    5.4670  -14.2411 C   0  0  0  0  0  0  0  0  0  0  0  0
   -7.7292    6.6336  -14.1966 O   0  0  0  0  0  0  0  0  0  0  0  0
   -7.7194    4.7777  -15.5665 C   0  0  0  0  0  0  0  0  0  0  0  0
   -8.9215    4.2640  -15.9095 C   0  0  0  0  0  0  0  0  0  0  0  0
   -9.2538    3.9422  -17.2896 C   0  0  0  0  0  0  0  0  0  0  0  0
   -8.3411    4.1706  -18.2440 C   0  0  0  0  0  0  0  0  0  0  0  0
   -7.1009    4.6833  -17.8828 N   0  0  0  0  0  0  0  0  0  0  0  0
   -6.0388    5.0028  -18.6838 C   0  0  0  0  0  0  0  0  0  0  0  0
   -5.0445    5.4383  -17.8335 C   0  0  0  0  0  0  0  0  0  0  0  0
   -3.6582    5.8722  -18.1939 C   0  0  0  0  0  0  0  0  0  0  0  0
   -3.3022    7.1303  -17.5363 N   0  0  0  0  0  0  0  0  0  0  0  0
   -4.1501    8.2595  -17.9037 C   0  0  0  0  0  0  0  0  0  0  0  0
   -3.3676    9.4463  -17.3643 C   0  0  0  0  0  0  0  0  0  0  0  0
   -1.9107    8.9942  -17.3626 C   0  0  0  0  0  0  0  0  0  0  0  0
   -1.9386    7.5491  -17.8386 C   0  0  0  0  0  0  0  0  0  0  0  0
   -5.4916    5.4226  -16.5258 N   0  0  0  0  0  0  0  0  0  0  0  0
   -6.7335    4.9881  -16.5734 C   0  0  0  0  0  0  0  0  0  0  0  0
  1  2  1  0
  2  3  1  0
  2  4  1  0
  2  5  1  0
  5  6  1  0
  6  7  2  0
  6  8  1  0
  8  9  1  0
  9 10  1  0
 10 11  2  0
 11 12  1  0
 12 13  1  0
 13 14  2  0
 13 15  1  0
 12 16  2  0
 16 17  1  0
 17 18  2  0
 18 19  1  0
 19 20  1  0
 20 21  2  0
 20 22  1  0
 22 23  2  0
 23 24  1  0
 24 25  2  0
 25 26  1  0
 26 27  1  0
 27 28  2  0
 28 29  1  0
 29 30  1  0
 30 31  1  0
 31 32  1  0
 32 33  1  0
 33 34  1  0
 28 35  1  0
 35 36  2  0
 18 10  1  0
 36 22  1  0
 36 26  1  0
 34 30  1  0
M  CHG  2  13   1  15  -1
M  END
>  <name>  (479) 
P118451

>  <alias>  (479) 
None

>  <smina_score_min>  (479) 
-7.158

>  <exports>  (479) 
['/opt/xchem-fragalysis-2/maxwin/BulkDock/OUTPUTS/openbind_xx01zvns2b_c2_elabs_1LOUTNY.sdf', '/opt/xchem-fragalysis-2/maxwin/BulkDock/OUTPUTS/openbind_xx01zvns2b_c2_elabs_1LSYIIV.sdf']

>  <tags>  (479) 
syndirella_placed,openbind_xx01zvns2b_c2_elabs,openbind_xx01zvns2b_c2_elabs_scored_6.2plus,syndirella_product,openbind_xx01zvns2b_c2_elabs_scored,openbind_xx01zvns2b_c2_elabs_scored_top80percent,BulkDock Fragalysis export

>  <subsites>  (479) 
1 - Z4590/B/203/1

>  <smiles>  (479) 
CC(C)(C)OC(=O)NCc1cc([N+](=O)[O-])ccc1NC(=O)c1cccn2cc(CN3CCCC3)nc12

>  <HIPPO Pose ID>  (479) 
118451

>  <energy_score>  (479) 
-58.54969

>  <inchikey>  (479) 
MQGNWFUHMHHZIG-UHFFFAOYSA-N

>  <gnina_score_min>  (479) 
6.266

>  <gnina_score>  (479) 
6.437

>  <ref_mols>  (479) 
Z3093a

>  <HIPPO Compound ID>  (479) 
182268

>  <distance_score>  (479) 
0.667576

>  <rmsd(smina/fragmenstein)>  (479) 
0.825

>  <ref_pdb>  (479) 
Z3093a

>  <inspiration_score>  (479) 
None

$$$$
P118454
     RDKit          3D

 36 40  0  0  0  0  0  0  0  0999 V2000
  -10.5220   13.0063  -12.2187 C   0  0  0  0  0  0  0  0  0  0  0  0
  -10.2501   11.6649  -12.9178 C   0  0  0  0  0  0  0  0  0  0  0  0
  -11.5515   11.1886  -13.5711 C   0  0  0  0  0  0  0  0  0  0  0  0
   -9.1352   11.8644  -13.9480 C   0  0  0  0  0  0  0  0  0  0  0  0
   -9.8027   10.7800  -11.8609 O   0  0  0  0  0  0  0  0  0  0  0  0
   -9.5785    9.4581  -12.1006 C   0  0  0  0  0  0  0  0  0  0  0  0
   -9.7585    8.9249  -13.1151 O   0  0  0  0  0  0  0  0  0  0  0  0
   -9.0647    8.9114  -10.7737 N   0  0  0  0  0  0  0  0  0  0  0  0
   -8.5850    7.6475  -10.4403 C   0  0  0  0  0  0  0  0  0  0  0  0
   -8.1218    7.4665   -9.1375 C   0  0  0  0  0  0  0  0  0  0  0  0
   -7.7027    6.2091   -8.7206 C   0  0  0  0  0  0  0  0  0  0  0  0
   -7.7532    5.1315   -9.5981 C   0  0  0  0  0  0  0  0  0  0  0  0
   -8.1959    5.2883  -10.9216 C   0  0  0  0  0  0  0  0  0  0  0  0
   -8.6033    6.5690  -11.3331 C   0  0  0  0  0  0  0  0  0  0  0  0
   -8.3510    4.0495  -11.7688 C   0  0  1  0  0  0  0  0  0  0  0  0
   -8.2980    4.1579  -13.2113 N   0  0  0  0  0  0  0  0  0  0  0  0
   -7.4425    5.0800  -14.1227 C   0  0  0  0  0  0  0  0  0  0  0  0
   -6.7080    5.9449  -13.8471 O   0  0  0  0  0  0  0  0  0  0  0  0
   -7.7437    4.7365  -15.5797 C   0  0  0  0  0  0  0  0  0  0  0  0
   -8.9818    4.3508  -15.9702 C   0  0  0  0  0  0  0  0  0  0  0  0
   -9.3350    4.0864  -17.3544 C   0  0  0  0  0  0  0  0  0  0  0  0
   -8.4022    4.2659  -18.2968 C   0  0  0  0  0  0  0  0  0  0  0  0
   -7.1387    4.7023  -17.9189 N   0  0  0  0  0  0  0  0  0  0  0  0
   -6.0678    4.9995  -18.7187 C   0  0  0  0  0  0  0  0  0  0  0  0
   -5.0572    5.3869  -17.8666 C   0  0  0  0  0  0  0  0  0  0  0  0
   -3.6675    5.8150  -18.2211 C   0  0  0  0  0  0  0  0  0  0  0  0
   -3.3126    7.0798  -17.5762 N   0  0  0  0  0  0  0  0  0  0  0  0
   -1.9506    7.5007  -17.8775 C   0  0  0  0  0  0  0  0  0  0  0  0
   -1.9263    8.9472  -17.4048 C   0  0  0  0  0  0  0  0  0  0  0  0
   -3.3847    9.3945  -17.4020 C   0  0  0  0  0  0  0  0  0  0  0  0
   -4.1655    8.2052  -17.9390 C   0  0  0  0  0  0  0  0  0  0  0  0
   -5.4917    5.3287  -16.5591 N   0  0  0  0  0  0  0  0  0  0  0  0
   -6.7524    4.9442  -16.5994 C   0  0  0  0  0  0  0  0  0  0  0  0
   -7.4236    2.9512  -11.2786 C   0  0  0  0  0  0  0  0  0  0  0  0
   -7.6706    2.7762   -9.7922 C   0  0  0  0  0  0  0  0  0  0  0  0
   -7.3272    3.9493   -9.0556 O   0  0  0  0  0  0  0  0  0  0  0  0
  1  2  1  0
  2  3  1  0
  2  4  1  0
  2  5  1  0
  5  6  1  0
  6  7  2  0
  6  8  1  0
  8  9  1  0
  9 10  2  0
 10 11  1  0
 11 12  2  0
 12 13  1  0
 13 14  2  0
 13 15  1  0
 15 16  1  6
 16 17  1  0
 17 18  2  0
 17 19  1  0
 19 20  2  0
 20 21  1  0
 21 22  2  0
 22 23  1  0
 23 24  1  0
 24 25  2  0
 25 26  1  0
 26 27  1  0
 27 28  1  0
 28 29  1  0
 29 30  1  0
 30 31  1  0
 25 32  1  0
 32 33  2  0
 15 34  1  0
 34 35  1  0
 35 36  1  0
 14  9  1  0
 33 19  1  0
 36 12  1  0
 33 23  1  0
 31 27  1  0
M  END
>  <name>  (480) 
P118454

>  <alias>  (480) 
None

>  <smina_score_min>  (480) 
-7.318

>  <exports>  (480) 
['/opt/xchem-fragalysis-2/maxwin/BulkDock/OUTPUTS/openbind_xx01zvns2b_c2_elabs_1LOUTNY.sdf', '/opt/xchem-fragalysis-2/maxwin/BulkDock/OUTPUTS/openbind_xx01zvns2b_c2_elabs_1LSYIIV.sdf']

>  <tags>  (480) 
syndirella_placed,openbind_xx01zvns2b_c2_elabs,openbind_xx01zvns2b_c2_elabs_scored_6.2plus,syndirella_product,openbind_xx01zvns2b_c2_elabs_scored,openbind_xx01zvns2b_c2_elabs_scored_top80percent,BulkDock Fragalysis export

>  <subsites>  (480) 
1 - Z4590/B/203/1

>  <smiles>  (480) 
CC(C)(C)OC(=O)Nc1ccc2c(c1)[C@@H](NC(=O)c1cccn3cc(CN4CCCC4)nc13)CCO2

>  <HIPPO Pose ID>  (480) 
118454

>  <energy_score>  (480) 
-35.822794

>  <inchikey>  (480) 
VTHHEUFHEUCSBX-QFIPXVFZSA-N

>  <gnina_score_min>  (480) 
6.52

>  <gnina_score>  (480) 
6.474

>  <ref_mols>  (480) 
Z3093a

>  <HIPPO Compound ID>  (480) 
182271

>  <distance_score>  (480) 
0.658325

>  <rmsd(smina/fragmenstein)>  (480) 
0.781

>  <ref_pdb>  (480) 
Z3093a

>  <inspiration_score>  (480) 
None

$$$$
P118459
     RDKit          3D

 36 41  0  0  0  0  0  0  0  0999 V2000
   -9.0386    1.3932   -8.4998 C   0  0  0  0  0  0  0  0  0  0  0  0
   -7.7013    1.7817   -9.0344 C   0  0  0  0  0  0  0  0  0  0  0  0
   -6.7524    1.0530   -9.5982 N   0  0  0  0  0  0  0  0  0  0  0  0
   -5.7211    1.9024   -9.8872 C   0  0  0  0  0  0  0  0  0  0  0  0
   -4.4936    1.6365  -10.5104 C   0  0  0  0  0  0  0  0  0  0  0  0
   -3.5816    2.6860  -10.6690 C   0  0  0  0  0  0  0  0  0  0  0  0
   -3.8848    3.9700  -10.2115 C   0  0  0  0  0  0  0  0  0  0  0  0
   -5.1065    4.2512   -9.5871 C   0  0  0  0  0  0  0  0  0  0  0  0
   -6.0092    3.1888   -9.4481 C   0  0  0  0  0  0  0  0  0  0  0  0
   -7.2923    3.0796   -8.9468 N   0  0  0  0  0  0  0  0  0  0  0  0
   -8.1619    4.1518   -8.5166 C   0  0  0  0  0  0  0  0  0  0  0  0
   -8.3348    5.1284   -9.6434 C   0  0  0  0  0  0  0  0  0  0  0  0
   -8.4303    4.6620  -10.9785 C   0  0  0  0  0  0  0  0  0  0  0  0
   -8.2385    5.5480  -12.0220 C   0  0  0  0  0  0  0  0  0  0  0  0
   -8.1425    5.1055  -13.3315 N   0  0  0  0  0  0  0  0  0  0  0  0
   -7.5467    5.7908  -14.5801 C   0  0  0  0  0  0  0  0  0  0  0  0
   -7.1130    6.8649  -14.7183 O   0  0  0  0  0  0  0  0  0  0  0  0
   -7.6728    4.8953  -15.7815 C   0  0  0  0  0  0  0  0  0  0  0  0
   -8.8800    4.3588  -16.0744 C   0  0  0  0  0  0  0  0  0  0  0  0
   -9.2168    3.9168  -17.4208 C   0  0  0  0  0  0  0  0  0  0  0  0
   -8.3177    4.0853  -18.4011 C   0  0  0  0  0  0  0  0  0  0  0  0
   -7.0720    4.6170  -18.0913 N   0  0  0  0  0  0  0  0  0  0  0  0
   -6.0207    4.9078  -18.9199 C   0  0  0  0  0  0  0  0  0  0  0  0
   -5.0156    5.3848  -18.1047 C   0  0  0  0  0  0  0  0  0  0  0  0
   -3.6500    5.8581  -18.4953 C   0  0  0  0  0  0  0  0  0  0  0  0
   -3.2498    7.0434  -17.7337 N   0  0  0  0  0  0  0  0  0  0  0  0
   -1.9089    7.5035  -18.0688 C   0  0  0  0  0  0  0  0  0  0  0  0
   -1.8533    8.8825  -17.4280 C   0  0  0  0  0  0  0  0  0  0  0  0
   -3.3062    9.3336  -17.3171 C   0  0  0  0  0  0  0  0  0  0  0  0
   -4.1222    8.1993  -17.9179 C   0  0  0  0  0  0  0  0  0  0  0  0
   -5.4355    5.3913  -16.7933 N   0  0  0  0  0  0  0  0  0  0  0  0
   -6.6863    4.9838  -16.8090 C   0  0  0  0  0  0  0  0  0  0  0  0
   -8.1034    6.9093  -11.7536 C   0  0  0  0  0  0  0  0  0  0  0  0
   -8.1630    7.3895  -10.4488 C   0  0  0  0  0  0  0  0  0  0  0  0
   -8.2717    6.5017   -9.3908 C   0  0  0  0  0  0  0  0  0  0  0  0
   -8.2744    7.1641   -7.7951 Cl  0  0  0  0  0  0  0  0  0  0  0  0
  1  2  1  0
  2  3  2  0
  3  4  1  0
  4  5  2  0
  5  6  1  0
  6  7  2  0
  7  8  1  0
  8  9  2  0
  9 10  1  0
 10 11  1  0
 11 12  1  0
 12 13  2  0
 13 14  1  0
 14 15  1  0
 15 16  1  0
 16 17  2  0
 16 18  1  0
 18 19  2  0
 19 20  1  0
 20 21  2  0
 21 22  1  0
 22 23  1  0
 23 24  2  0
 24 25  1  0
 25 26  1  0
 26 27  1  0
 27 28  1  0
 28 29  1  0
 29 30  1  0
 24 31  1  0
 31 32  2  0
 14 33  2  0
 33 34  1  0
 34 35  2  0
 35 36  1  0
 10  2  1  0
 35 12  1  0
  9  4  1  0
 32 18  1  0
 32 22  1  0
 30 26  1  0
M  END
>  <name>  (481) 
P118459

>  <alias>  (481) 
None

>  <smina_score_min>  (481) 
-6.903

>  <exports>  (481) 
['/opt/xchem-fragalysis-2/maxwin/BulkDock/OUTPUTS/openbind_xx01zvns2b_c2_elabs_1LOUTNY.sdf', '/opt/xchem-fragalysis-2/maxwin/BulkDock/OUTPUTS/openbind_xx01zvns2b_c2_elabs_1LSYIIV.sdf']

>  <tags>  (481) 
syndirella_placed,openbind_xx01zvns2b_c2_elabs,openbind_xx01zvns2b_c2_elabs_scored_6.2plus,syndirella_product,openbind_xx01zvns2b_c2_elabs_scored,openbind_xx01zvns2b_c2_elabs_scored_top80percent,BulkDock Fragalysis export

>  <subsites>  (481) 
1 - Z4590/B/203/1

>  <smiles>  (481) 
Cc1nc2ccccc2n1Cc1cc(NC(=O)c2cccn3cc(CN4CCCC4)nc23)ccc1Cl

>  <HIPPO Pose ID>  (481) 
118459

>  <energy_score>  (481) 
-33.797032

>  <inchikey>  (481) 
ORRQLRFFXXNZON-UHFFFAOYSA-N

>  <gnina_score_min>  (481) 
6.577

>  <gnina_score>  (481) 
6.837

>  <ref_mols>  (481) 
Z3093a

>  <HIPPO Compound ID>  (481) 
182281

>  <distance_score>  (481) 
1.025191

>  <rmsd(smina/fragmenstein)>  (481) 
0.89

>  <ref_pdb>  (481) 
Z3093a

>  <inspiration_score>  (481) 
None

$$$$
P118463
     RDKit          3D

 36 41  0  0  0  0  0  0  0  0999 V2000
   -1.9140    1.7255  -10.2805 O   0  0  0  0  0  0  0  0  0  0  0  0
   -3.1393    1.8072  -10.3121 C   0  0  0  0  0  0  0  0  0  0  0  0
   -4.0104    0.6640  -10.7528 C   0  0  0  0  0  0  0  0  0  0  0  0
   -5.4306    1.1129  -11.0765 C   0  0  0  0  0  0  0  0  0  0  0  0
   -6.0362    1.8428   -9.8679 C   0  0  2  0  0  0  0  0  0  0  0  0
   -7.4679    2.1708   -9.9744 N   0  0  0  0  0  0  0  0  0  0  0  0
   -8.1257    2.9408   -8.9147 C   0  0  0  0  0  0  0  0  0  0  0  0
   -8.3830    4.2397   -9.6014 C   0  0  0  0  0  0  0  0  0  0  0  0
   -8.4680    5.5166   -9.0890 C   0  0  0  0  0  0  0  0  0  0  0  0
   -8.4316    6.5842   -9.9938 C   0  0  0  0  0  0  0  0  0  0  0  0
   -8.3007    6.3660  -11.3824 C   0  0  0  0  0  0  0  0  0  0  0  0
   -8.2325    5.0712  -11.8888 C   0  0  0  0  0  0  0  0  0  0  0  0
   -8.0066    4.7904  -13.2311 N   0  0  0  0  0  0  0  0  0  0  0  0
   -7.6278    5.7234  -14.4003 C   0  0  0  0  0  0  0  0  0  0  0  0
   -7.3706    6.8610  -14.4067 O   0  0  0  0  0  0  0  0  0  0  0  0
   -7.7325    4.9531  -15.6878 C   0  0  0  0  0  0  0  0  0  0  0  0
   -8.9188    4.3835  -15.9995 C   0  0  0  0  0  0  0  0  0  0  0  0
   -9.2372    3.9597  -17.3549 C   0  0  0  0  0  0  0  0  0  0  0  0
   -8.3245    4.1407  -18.3194 C   0  0  0  0  0  0  0  0  0  0  0  0
   -7.0930    4.6924  -17.9876 N   0  0  0  0  0  0  0  0  0  0  0  0
   -6.0280    4.9734  -18.8006 C   0  0  0  0  0  0  0  0  0  0  0  0
   -5.0414    5.4665  -17.9733 C   0  0  0  0  0  0  0  0  0  0  0  0
   -3.6602    5.9049  -18.3492 C   0  0  0  0  0  0  0  0  0  0  0  0
   -3.2656    7.1202  -17.6353 N   0  0  0  0  0  0  0  0  0  0  0  0
   -4.1151    8.2761  -17.9034 C   0  0  0  0  0  0  0  0  0  0  0  0
   -3.3015    9.4247  -17.3283 C   0  0  0  0  0  0  0  0  0  0  0  0
   -1.8512    8.9562  -17.3913 C   0  0  0  0  0  0  0  0  0  0  0  0
   -1.9092    7.5446  -17.9564 C   0  0  0  0  0  0  0  0  0  0  0  0
   -5.4949    5.5182  -16.6713 N   0  0  0  0  0  0  0  0  0  0  0  0
   -6.7378    5.0861  -16.7008 C   0  0  0  0  0  0  0  0  0  0  0  0
   -8.3109    4.0413  -10.9749 C   0  0  0  0  0  0  0  0  0  0  0  0
   -7.8918    2.6684  -11.1990 C   0  0  0  0  0  0  0  0  0  0  0  0
   -7.7905    2.1694  -12.3017 O   0  0  0  0  0  0  0  0  0  0  0  0
   -5.1132    3.0527   -9.5333 C   0  0  0  0  0  0  0  0  0  0  0  0
   -5.4526    4.0663   -8.9234 O   0  0  0  0  0  0  0  0  0  0  0  0
   -3.7822    2.9219   -9.8549 N   0  0  0  0  0  0  0  0  0  0  0  0
  1  2  2  0
  2  3  1  0
  3  4  1  0
  4  5  1  0
  5  6  1  6
  6  7  1  0
  7  8  1  0
  8  9  2  0
  9 10  1  0
 10 11  2  0
 11 12  1  0
 12 13  1  0
 13 14  1  0
 14 15  2  0
 14 16  1  0
 16 17  2  0
 17 18  1  0
 18 19  2  0
 19 20  1  0
 20 21  1  0
 21 22  2  0
 22 23  1  0
 23 24  1  0
 24 25  1  0
 25 26  1  0
 26 27  1  0
 27 28  1  0
 22 29  1  0
 29 30  2  0
 12 31  2  0
 31 32  1  0
 32 33  2  0
  5 34  1  0
 34 35  2  0
 34 36  1  0
 36  2  1  0
 32  6  1  0
 31  8  1  0
 30 16  1  0
 30 20  1  0
 28 24  1  0
M  END
>  <name>  (482) 
P118463

>  <alias>  (482) 
None

>  <smina_score_min>  (482) 
-8.338

>  <exports>  (482) 
['/opt/xchem-fragalysis-2/maxwin/BulkDock/OUTPUTS/openbind_xx01zvns2b_c2_elabs_1LOUTNY.sdf', '/opt/xchem-fragalysis-2/maxwin/BulkDock/OUTPUTS/openbind_xx01zvns2b_c2_elabs_1LSYIIV.sdf']

>  <tags>  (482) 
syndirella_placed,openbind_xx01zvns2b_c2_elabs,openbind_xx01zvns2b_c2_elabs_scored_6.2plus,syndirella_product,openbind_xx01zvns2b_c2_elabs_scored,openbind_xx01zvns2b_c2_elabs_scored_top80percent,BulkDock Fragalysis export

>  <subsites>  (482) 
1 - Z4590/B/203/1

>  <smiles>  (482) 
O=C1CC[C@H](N2Cc3cccc(NC(=O)c4cccn5cc(CN6CCCC6)nc45)c3C2=O)C(=O)N1

>  <HIPPO Pose ID>  (482) 
118463

>  <energy_score>  (482) 
-17.270648

>  <inchikey>  (482) 
NKJCIMXBASJBEO-FQEVSTJZSA-N

>  <gnina_score_min>  (482) 
6.515

>  <gnina_score>  (482) 
6.573

>  <ref_mols>  (482) 
Z3093a

>  <HIPPO Compound ID>  (482) 
182289

>  <distance_score>  (482) 
0.741496

>  <rmsd(smina/fragmenstein)>  (482) 
0.779

>  <ref_pdb>  (482) 
Z3093a

>  <inspiration_score>  (482) 
None

$$$$
P118475
     RDKit          3D

 33 36  0  0  0  0  0  0  0  0999 V2000
   -9.7276    3.6873   -4.5583 C   0  0  0  0  0  0  0  0  0  0  0  0
  -10.4289    2.5906   -5.3489 C   0  0  0  0  0  0  0  0  0  0  0  0
   -9.5901    1.9570   -6.4618 C   0  0  0  0  0  0  0  0  0  0  0  0
   -9.5321    2.7804   -7.6513 N   0  0  0  0  0  0  0  0  0  0  0  0
   -8.6951    3.9833   -7.5480 C   0  0  0  0  0  0  0  0  0  0  0  0
   -8.3481    4.2786   -8.9677 C   0  0  0  0  0  0  0  0  0  0  0  0
   -7.9377    5.4632   -9.5400 C   0  0  0  0  0  0  0  0  0  0  0  0
   -7.7491    5.4799  -10.9202 C   0  0  0  0  0  0  0  0  0  0  0  0
   -7.9485    4.3201  -11.6898 C   0  0  0  0  0  0  0  0  0  0  0  0
   -7.7569    4.3414  -13.0639 N   0  0  0  0  0  0  0  0  0  0  0  0
   -7.3850    5.5024  -14.0040 C   0  0  0  0  0  0  0  0  0  0  0  0
   -7.1052    6.6089  -13.7651 O   0  0  0  0  0  0  0  0  0  0  0  0
   -7.3352    5.0437  -15.4026 C   0  0  0  0  0  0  0  0  0  0  0  0
   -8.4671    4.5401  -16.0351 C   0  0  0  0  0  0  0  0  0  0  0  0
   -8.3965    4.2657  -17.3971 C   0  0  0  0  0  0  0  0  0  0  0  0
   -9.8039    3.7359  -18.2182 Cl  0  0  0  0  0  0  0  0  0  0  0  0
   -7.2127    4.4577  -18.1118 C   0  0  0  0  0  0  0  0  0  0  0  0
   -6.0725    4.9031  -17.4468 C   0  0  0  0  0  0  0  0  0  0  0  0
   -4.8720    5.0188  -18.1329 N   0  0  0  0  0  0  0  0  0  0  0  0
   -3.4681    5.3493  -17.6290 C   0  0  0  0  0  0  0  0  0  0  0  0
   -3.0724    5.5033  -16.5474 O   0  0  0  0  0  0  0  0  0  0  0  0
   -2.6971    5.4274  -18.7439 O   0  0  0  0  0  0  0  0  0  0  0  0
   -1.3418    5.8383  -18.5183 C   0  0  0  0  0  0  0  0  0  0  0  0
   -1.2072    7.2918  -18.8921 C   0  0  0  0  0  0  0  0  0  0  0  0
   -1.8640    8.2881  -18.1534 C   0  0  0  0  0  0  0  0  0  0  0  0
   -1.7622    9.6285  -18.5247 C   0  0  0  0  0  0  0  0  0  0  0  0
   -0.9920    9.9875  -19.6283 C   0  0  0  0  0  0  0  0  0  0  0  0
   -0.3224    9.0079  -20.3595 C   0  0  0  0  0  0  0  0  0  0  0  0
   -0.4306    7.6657  -19.9952 C   0  0  0  0  0  0  0  0  0  0  0  0
   -6.1380    5.2139  -16.0932 C   0  0  0  0  0  0  0  0  0  0  0  0
   -8.3404    3.1220  -11.0910 C   0  0  0  0  0  0  0  0  0  0  0  0
   -8.5524    3.1268   -9.7286 C   0  0  0  0  0  0  0  0  0  0  0  0
   -9.0406    2.0366   -8.8306 C   0  0  0  0  0  0  0  0  0  0  0  0
  1  2  1  0
  2  3  1  0
  3  4  1  0
  4  5  1  0
  5  6  1  0
  6  7  2  0
  7  8  1  0
  8  9  2  0
  9 10  1  0
 10 11  1  0
 11 12  2  0
 11 13  1  0
 13 14  2  0
 14 15  1  0
 15 16  1  0
 15 17  2  0
 17 18  1  0
 18 19  1  0
 19 20  1  0
 20 21  2  0
 20 22  1  0
 22 23  1  0
 23 24  1  0
 24 25  2  0
 25 26  1  0
 26 27  2  0
 27 28  1  0
 28 29  2  0
 18 30  2  0
  9 31  1  0
 31 32  2  0
 32 33  1  0
 33  4  1  0
 32  6  1  0
 30 13  1  0
 29 24  1  0
M  END
>  <name>  (483) 
P118475

>  <alias>  (483) 
None

>  <smina_score_min>  (483) 
-8.212

>  <exports>  (483) 
['/opt/xchem-fragalysis-2/maxwin/BulkDock/OUTPUTS/openbind_xx01zvns2b_c2_elabs_1LOUTNY.sdf', '/opt/xchem-fragalysis-2/maxwin/BulkDock/OUTPUTS/openbind_xx01zvns2b_c2_elabs_1LSYIIV.sdf']

>  <tags>  (483) 
syndirella_placed,openbind_xx01zvns2b_c2_elabs,openbind_xx01zvns2b_c2_elabs_scored_6.2plus,syndirella_product,openbind_xx01zvns2b_c2_elabs_scored,openbind_xx01zvns2b_c2_elabs_scored_top80percent,BulkDock Fragalysis export

>  <subsites>  (483) 
1 - Z4590/B/203/1

>  <smiles>  (483) 
CCCN1Cc2ccc(NC(=O)c3cc(Cl)cc(NC(=O)OCc4ccccc4)c3)cc2C1

>  <HIPPO Pose ID>  (483) 
118475

>  <energy_score>  (483) 
-33.443237

>  <inchikey>  (483) 
MVIONGVMGFNPBI-UHFFFAOYSA-N

>  <gnina_score_min>  (483) 
6.202

>  <gnina_score>  (483) 
5.915

>  <ref_mols>  (483) 
Z3059a

>  <HIPPO Compound ID>  (483) 
182298

>  <distance_score>  (483) 
0.602733

>  <rmsd(smina/fragmenstein)>  (483) 
1.408

>  <ref_pdb>  (483) 
Z3059a

>  <inspiration_score>  (483) 
None

$$$$
P118490
     RDKit          3D

 36 39  0  0  0  0  0  0  0  0999 V2000
   -6.6085    5.0863   -3.4949 C   0  0  0  0  0  0  0  0  0  0  0  0
   -8.1159    5.0880   -3.6492 C   0  0  0  0  0  0  0  0  0  0  0  0
   -8.4987    3.9157   -4.3608 O   0  0  0  0  0  0  0  0  0  0  0  0
   -9.9026    3.8940   -4.6171 C   0  0  0  0  0  0  0  0  0  0  0  0
  -10.3698    2.6133   -5.3024 C   0  0  0  0  0  0  0  0  0  0  0  0
   -9.4757    2.0413   -6.3990 C   0  0  0  0  0  0  0  0  0  0  0  0
   -9.4905    2.8542   -7.5999 N   0  0  0  0  0  0  0  0  0  0  0  0
   -8.6115    4.0340   -7.5299 C   0  0  0  0  0  0  0  0  0  0  0  0
   -8.3161    4.3193   -8.9625 C   0  0  0  0  0  0  0  0  0  0  0  0
   -7.8960    5.4916   -9.5508 C   0  0  0  0  0  0  0  0  0  0  0  0
   -7.7557    5.4991  -10.9356 C   0  0  0  0  0  0  0  0  0  0  0  0
   -8.0162    4.3436  -11.6940 C   0  0  0  0  0  0  0  0  0  0  0  0
   -7.8862    4.3653  -13.0742 N   0  0  0  0  0  0  0  0  0  0  0  0
   -7.5007    5.5130  -14.0242 C   0  0  0  0  0  0  0  0  0  0  0  0
   -7.3059    6.6417  -13.8064 O   0  0  0  0  0  0  0  0  0  0  0  0
   -7.3944    5.0337  -15.4105 C   0  0  0  0  0  0  0  0  0  0  0  0
   -8.5028    4.5189  -16.0724 C   0  0  0  0  0  0  0  0  0  0  0  0
   -8.3929    4.2477  -17.4310 C   0  0  0  0  0  0  0  0  0  0  0  0
   -9.7760    3.7087  -18.2836 Cl  0  0  0  0  0  0  0  0  0  0  0  0
   -7.1932    4.4548  -18.1144 C   0  0  0  0  0  0  0  0  0  0  0  0
   -6.0760    4.9141  -17.4195 C   0  0  0  0  0  0  0  0  0  0  0  0
   -4.8637    5.0616  -18.0791 N   0  0  0  0  0  0  0  0  0  0  0  0
   -3.4802    5.4289  -17.5441 C   0  0  0  0  0  0  0  0  0  0  0  0
   -3.1438    5.7430  -16.4771 O   0  0  0  0  0  0  0  0  0  0  0  0
   -2.6545    5.3783  -18.6220 O   0  0  0  0  0  0  0  0  0  0  0  0
   -1.3129    5.8248  -18.3810 C   0  0  0  0  0  0  0  0  0  0  0  0
   -1.1809    7.2546  -18.8406 C   0  0  0  0  0  0  0  0  0  0  0  0
   -1.8057    8.2968  -18.1379 C   0  0  0  0  0  0  0  0  0  0  0  0
   -1.7096    9.6138  -18.5869 C   0  0  0  0  0  0  0  0  0  0  0  0
   -0.9770    9.9046  -19.7349 C   0  0  0  0  0  0  0  0  0  0  0  0
   -0.3417    8.8795  -20.4338 C   0  0  0  0  0  0  0  0  0  0  0  0
   -0.4458    7.5600  -19.9920 C   0  0  0  0  0  0  0  0  0  0  0  0
   -6.1803    5.2184  -16.0669 C   0  0  0  0  0  0  0  0  0  0  0  0
   -8.4132    3.1557  -11.0797 C   0  0  0  0  0  0  0  0  0  0  0  0
   -8.5728    3.1692   -9.7108 C   0  0  0  0  0  0  0  0  0  0  0  0
   -9.0451    2.0925   -8.7889 C   0  0  0  0  0  0  0  0  0  0  0  0
  1  2  1  0
  2  3  1  0
  3  4  1  0
  4  5  1  0
  5  6  1  0
  6  7  1  0
  7  8  1  0
  8  9  1  0
  9 10  2  0
 10 11  1  0
 11 12  2  0
 12 13  1  0
 13 14  1  0
 14 15  2  0
 14 16  1  0
 16 17  2  0
 17 18  1  0
 18 19  1  0
 18 20  2  0
 20 21  1  0
 21 22  1  0
 22 23  1  0
 23 24  2  0
 23 25  1  0
 25 26  1  0
 26 27  1  0
 27 28  2  0
 28 29  1  0
 29 30  2  0
 30 31  1  0
 31 32  2  0
 21 33  2  0
 12 34  1  0
 34 35  2  0
 35 36  1  0
 36  7  1  0
 35  9  1  0
 33 16  1  0
 32 27  1  0
M  END
>  <name>  (484) 
P118490

>  <alias>  (484) 
None

>  <smina_score_min>  (484) 
-7.809

>  <exports>  (484) 
['/opt/xchem-fragalysis-2/maxwin/BulkDock/OUTPUTS/openbind_xx01zvns2b_c2_elabs_1LOUTNY.sdf', '/opt/xchem-fragalysis-2/maxwin/BulkDock/OUTPUTS/openbind_xx01zvns2b_c2_elabs_1LSYIIV.sdf']

>  <tags>  (484) 
syndirella_placed,openbind_xx01zvns2b_c2_elabs,openbind_xx01zvns2b_c2_elabs_scored_6.2plus,syndirella_product,openbind_xx01zvns2b_c2_elabs_scored,openbind_xx01zvns2b_c2_elabs_scored_top80percent,BulkDock Fragalysis export

>  <subsites>  (484) 
1 - Z4590/B/203/1

>  <smiles>  (484) 
CCOCCCN1Cc2ccc(NC(=O)c3cc(Cl)cc(NC(=O)OCc4ccccc4)c3)cc2C1

>  <HIPPO Pose ID>  (484) 
118490

>  <energy_score>  (484) 
-28.63189

>  <inchikey>  (484) 
XTWFHCFOVKFFJH-UHFFFAOYSA-N

>  <gnina_score_min>  (484) 
6.469

>  <gnina_score>  (484) 
6.081

>  <ref_mols>  (484) 
Z3059a

>  <HIPPO Compound ID>  (484) 
182310

>  <distance_score>  (484) 
0.608903

>  <rmsd(smina/fragmenstein)>  (484) 
1.975

>  <ref_pdb>  (484) 
Z3059a

>  <inspiration_score>  (484) 
None

$$$$
P118496
     RDKit          3D

 39 43  0  0  0  0  0  0  0  0999 V2000
   -3.1296    5.4518  -16.5418 O   0  0  0  0  0  0  0  0  0  0  0  0
   -3.5131    5.3121  -17.6297 C   0  0  0  0  0  0  0  0  0  0  0  0
   -4.9079    4.9723  -18.1529 N   0  0  0  0  0  0  0  0  0  0  0  0
   -6.1132    4.8284  -17.4802 C   0  0  0  0  0  0  0  0  0  0  0  0
   -7.2449    4.3981  -18.1693 C   0  0  0  0  0  0  0  0  0  0  0  0
   -8.4402    4.1992  -17.4763 C   0  0  0  0  0  0  0  0  0  0  0  0
   -9.8465    3.7209  -18.3222 Cl  0  0  0  0  0  0  0  0  0  0  0  0
   -8.5319    4.4429  -16.1126 C   0  0  0  0  0  0  0  0  0  0  0  0
   -7.4086    4.9265  -15.4563 C   0  0  0  0  0  0  0  0  0  0  0  0
   -7.5292    5.4703  -14.1012 C   0  0  0  0  0  0  0  0  0  0  0  0
   -7.3635    6.6180  -13.9698 O   0  0  0  0  0  0  0  0  0  0  0  0
   -7.9299    4.3937  -13.0723 N   0  0  0  0  0  0  0  0  0  0  0  0
   -8.1117    4.4824  -11.6997 C   0  0  0  0  0  0  0  0  0  0  0  0
   -7.9784    5.7498  -11.0960 C   0  0  0  0  0  0  0  0  0  0  0  0
   -8.1734    5.9175   -9.7388 C   0  0  0  0  0  0  0  0  0  0  0  0
   -8.4901    4.7874   -9.0275 C   0  0  0  0  0  0  0  0  0  0  0  0
   -8.6075    3.5114   -9.5804 C   0  0  0  0  0  0  0  0  0  0  0  0
   -8.4257    3.3425  -10.9424 C   0  0  0  0  0  0  0  0  0  0  0  0
   -8.9294    2.5316   -8.4950 C   0  0  0  0  0  0  0  0  0  0  0  0
   -8.9252    3.3938   -7.3114 N   0  0  0  0  0  0  0  0  0  0  0  0
   -8.8627    2.8792   -5.9580 C   0  0  1  0  0  0  0  0  0  0  0  0
   -7.6506    3.4478   -5.2070 C   0  0  0  0  0  0  0  0  0  0  0  0
   -7.9181    4.5280   -4.1804 C   0  0  2  0  0  0  0  0  0  0  0  0
   -6.8018    4.6503   -3.4034 F   0  0  0  0  0  0  0  0  0  0  0  0
   -9.0854    4.1233   -3.3164 C   0  0  0  0  0  0  0  0  0  0  0  0
  -10.2425    3.8284   -4.1182 N   0  0  0  0  0  0  0  0  0  0  0  0
  -10.2082    3.0697   -5.2548 C   0  0  0  0  0  0  0  0  0  0  0  0
  -11.2675    2.6262   -5.6938 O   0  0  0  0  0  0  0  0  0  0  0  0
   -8.7394    4.7184   -7.6030 C   0  0  0  0  0  0  0  0  0  0  0  0
   -8.7283    5.6821   -6.8619 O   0  0  0  0  0  0  0  0  0  0  0  0
   -6.1983    5.1093  -16.1218 C   0  0  0  0  0  0  0  0  0  0  0  0
   -2.7324    5.4132  -18.7360 O   0  0  0  0  0  0  0  0  0  0  0  0
   -1.3786    5.8200  -18.4944 C   0  0  0  0  0  0  0  0  0  0  0  0
   -1.2345    7.2713  -18.8727 C   0  0  0  0  0  0  0  0  0  0  0  0
   -0.4399    7.6396  -19.9650 C   0  0  0  0  0  0  0  0  0  0  0  0
   -0.3222    8.9804  -20.3316 C   0  0  0  0  0  0  0  0  0  0  0  0
   -0.9999    9.9642  -19.6134 C   0  0  0  0  0  0  0  0  0  0  0  0
   -1.7882    9.6105  -18.5207 C   0  0  0  0  0  0  0  0  0  0  0  0
   -1.9001    8.2714  -18.1473 C   0  0  0  0  0  0  0  0  0  0  0  0
  1  2  2  0
  2  3  1  0
  3  4  1  0
  4  5  2  0
  5  6  1  0
  6  7  1  0
  6  8  2  0
  8  9  1  0
  9 10  1  0
 10 11  2  0
 10 12  1  0
 12 13  1  0
 13 14  2  0
 14 15  1  0
 15 16  2  0
 16 17  1  0
 17 18  2  0
 17 19  1  0
 19 20  1  0
 21 20  1  6
 21 22  1  0
 22 23  1  0
 23 24  1  1
 23 25  1  0
 25 26  1  0
 26 27  1  0
 27 28  2  0
 20 29  1  0
 29 30  2  0
  9 31  2  0
  2 32  1  0
 32 33  1  0
 33 34  1  0
 34 35  2  0
 35 36  1  0
 36 37  2  0
 37 38  1  0
 38 39  2  0
 31  4  1  0
 39 34  1  0
 18 13  1  0
 27 21  1  0
 29 16  1  0
M  END
>  <name>  (485) 
P118496

>  <alias>  (485) 
None

>  <smina_score_min>  (485) 
-8.148

>  <exports>  (485) 
['/opt/xchem-fragalysis-2/maxwin/BulkDock/OUTPUTS/openbind_xx01zvns2b_c2_elabs_1LOUTNY.sdf', '/opt/xchem-fragalysis-2/maxwin/BulkDock/OUTPUTS/openbind_xx01zvns2b_c2_elabs_1LSYIIV.sdf']

>  <tags>  (485) 
syndirella_placed,openbind_xx01zvns2b_c2_elabs,openbind_xx01zvns2b_c2_elabs_scored_6.2plus,syndirella_product,openbind_xx01zvns2b_c2_elabs_scored,openbind_xx01zvns2b_c2_elabs_scored_top80percent,BulkDock Fragalysis export

>  <subsites>  (485) 
1 - Z4590/B/203/1

>  <smiles>  (485) 
O=C(Nc1cc(Cl)cc(C(=O)Nc2ccc3c(c2)CN([C@H]2C[C@H](F)CNC2=O)C3=O)c1)OCc1ccccc1

>  <HIPPO Pose ID>  (485) 
118496

>  <energy_score>  (485) 
-29.808045

>  <inchikey>  (485) 
VTVXUGKOEISXQT-RDPSFJRHSA-N

>  <gnina_score_min>  (485) 
6.203

>  <gnina_score>  (485) 
6.192

>  <ref_mols>  (485) 
Z3059a

>  <HIPPO Compound ID>  (485) 
163176

>  <distance_score>  (485) 
0.683664

>  <rmsd(smina/fragmenstein)>  (485) 
1.089

>  <ref_pdb>  (485) 
Z3059a

>  <inspiration_score>  (485) 
None

$$$$
P118499
     RDKit          3D

 39 43  0  0  0  0  0  0  0  0999 V2000
  -12.2567    2.3618   -4.2924 O   0  0  0  0  0  0  0  0  0  0  0  0
  -11.2493    2.6757   -4.9068 C   0  0  0  0  0  0  0  0  0  0  0  0
  -10.0603    3.3743   -4.2938 C   0  0  0  0  0  0  0  0  0  0  0  0
   -9.1364    3.8444   -5.3763 C   0  0  0  0  0  0  0  0  0  0  0  0
   -8.8196    2.7088   -6.3633 C   0  0  2  0  0  0  0  0  0  0  0  0
   -8.4885    3.2584   -7.6600 N   0  0  0  0  0  0  0  0  0  0  0  0
   -8.6478    2.4986   -8.9015 C   0  0  0  0  0  0  0  0  0  0  0  0
   -8.1874    3.4886   -9.9058 C   0  0  0  0  0  0  0  0  0  0  0  0
   -8.2255    3.4296  -11.2789 C   0  0  0  0  0  0  0  0  0  0  0  0
   -7.7572    4.5459  -11.9719 C   0  0  0  0  0  0  0  0  0  0  0  0
   -7.7120    4.4985  -13.3498 N   0  0  0  0  0  0  0  0  0  0  0  0
   -7.2408    5.5464  -14.3698 C   0  0  0  0  0  0  0  0  0  0  0  0
   -6.8873    6.6458  -14.2152 O   0  0  0  0  0  0  0  0  0  0  0  0
   -7.2932    5.0061  -15.7308 C   0  0  0  0  0  0  0  0  0  0  0  0
   -8.4885    4.5249  -16.2493 C   0  0  0  0  0  0  0  0  0  0  0  0
   -8.5380    4.2201  -17.6004 C   0  0  0  0  0  0  0  0  0  0  0  0
  -10.0351    3.7657  -18.2829 Cl  0  0  0  0  0  0  0  0  0  0  0  0
   -7.4151    4.3618  -18.4137 C   0  0  0  0  0  0  0  0  0  0  0  0
   -6.2170    4.8070  -17.8647 C   0  0  0  0  0  0  0  0  0  0  0  0
   -5.1035    4.9729  -18.6715 N   0  0  0  0  0  0  0  0  0  0  0  0
   -3.6418    5.2217  -18.3068 C   0  0  0  0  0  0  0  0  0  0  0  0
   -3.1187    5.2520  -17.2702 O   0  0  0  0  0  0  0  0  0  0  0  0
   -3.0185    5.4685  -19.4872 O   0  0  0  0  0  0  0  0  0  0  0  0
   -1.6253    5.7960  -19.3805 C   0  0  0  0  0  0  0  0  0  0  0  0
   -1.3920    7.2899  -19.3402 C   0  0  0  0  0  0  0  0  0  0  0  0
   -0.3552    7.8340  -20.1122 C   0  0  0  0  0  0  0  0  0  0  0  0
   -0.1119    9.2072  -20.1135 C   0  0  0  0  0  0  0  0  0  0  0  0
   -0.8924   10.0541  -19.3312 C   0  0  0  0  0  0  0  0  0  0  0  0
   -1.9036    9.5265  -18.5331 C   0  0  0  0  0  0  0  0  0  0  0  0
   -2.1458    8.1518  -18.5296 C   0  0  0  0  0  0  0  0  0  0  0  0
   -6.1515    5.1273  -16.5158 C   0  0  0  0  0  0  0  0  0  0  0  0
   -7.2954    5.6957  -11.3010 C   0  0  0  0  0  0  0  0  0  0  0  0
   -7.2468    5.7386   -9.9180 C   0  0  0  0  0  0  0  0  0  0  0  0
   -7.6811    4.6154   -9.2621 C   0  0  0  0  0  0  0  0  0  0  0  0
   -7.7521    4.4064   -7.8304 C   0  0  0  0  0  0  0  0  0  0  0  0
   -7.2689    5.1643   -7.0101 O   0  0  0  0  0  0  0  0  0  0  0  0
  -10.0182    1.7916   -6.5760 C   0  0  0  0  0  0  0  0  0  0  0  0
  -10.0055    0.7231   -7.1743 O   0  0  0  0  0  0  0  0  0  0  0  0
  -11.1839    2.3547   -6.2021 N   0  0  0  0  0  0  0  0  0  0  0  0
  1  2  2  0
  2  3  1  0
  3  4  1  0
  4  5  1  0
  5  6  1  6
  6  7  1  0
  7  8  1  0
  8  9  2  0
  9 10  1  0
 10 11  1  0
 11 12  1  0
 12 13  2  0
 12 14  1  0
 14 15  2  0
 15 16  1  0
 16 17  1  0
 16 18  2  0
 18 19  1  0
 19 20  1  0
 20 21  1  0
 21 22  2  0
 21 23  1  0
 23 24  1  0
 24 25  1  0
 25 26  2  0
 26 27  1  0
 27 28  2  0
 28 29  1  0
 29 30  2  0
 19 31  2  0
 10 32  2  0
 32 33  1  0
 33 34  2  0
 34 35  1  0
 35 36  2  0
  5 37  1  0
 37 38  2  0
 37 39  1  0
 39  2  1  0
 35  6  1  0
 34  8  1  0
 31 14  1  0
 30 25  1  0
M  END
>  <name>  (486) 
P118499

>  <alias>  (486) 
None

>  <smina_score_min>  (486) 
-8.447

>  <exports>  (486) 
['/opt/xchem-fragalysis-2/maxwin/BulkDock/OUTPUTS/openbind_xx01zvns2b_c2_elabs_1LOUTNY.sdf', '/opt/xchem-fragalysis-2/maxwin/BulkDock/OUTPUTS/openbind_xx01zvns2b_c2_elabs_1LSYIIV.sdf']

>  <tags>  (486) 
syndirella_placed,openbind_xx01zvns2b_c2_elabs,openbind_xx01zvns2b_c2_elabs_scored_6.2plus,syndirella_product,openbind_xx01zvns2b_c2_elabs_scored,openbind_xx01zvns2b_c2_elabs_scored_top80percent,BulkDock Fragalysis export

>  <subsites>  (486) 
1 - Z4590/B/203/1

>  <smiles>  (486) 
O=C1CC[C@H](N2Cc3cc(NC(=O)c4cc(Cl)cc(NC(=O)OCc5ccccc5)c4)ccc3C2=O)C(=O)N1

>  <HIPPO Pose ID>  (486) 
118499

>  <energy_score>  (486) 
-46.213073

>  <inchikey>  (486) 
ZOORRUBXNGRBQJ-QHCPKHFHSA-N

>  <gnina_score_min>  (486) 
6.525

>  <gnina_score>  (486) 
6.415

>  <ref_mols>  (486) 
Z3059a

>  <HIPPO Compound ID>  (486) 
182313

>  <distance_score>  (486) 
0.971651

>  <rmsd(smina/fragmenstein)>  (486) 
1.926

>  <ref_pdb>  (486) 
Z3059a

>  <inspiration_score>  (486) 
None

$$$$
P118509
     RDKit          3D

 40 44  0  0  0  0  0  0  0  0999 V2000
  -12.4193    1.8866   -5.0994 O   0  0  0  0  0  0  0  0  0  0  0  0
  -11.4260    2.2742   -5.6942 C   0  0  0  0  0  0  0  0  0  0  0  0
  -10.1300    1.5813   -5.7326 C   0  0  0  0  0  0  0  0  0  0  0  0
   -9.0195    2.5620   -5.3816 C   0  0  0  0  0  0  0  0  0  0  0  0
   -9.0864    3.8942   -6.0313 C   0  0  1  0  0  0  0  0  0  0  0  0
   -8.5470    3.9487   -7.3631 N   0  0  0  0  0  0  0  0  0  0  0  0
   -7.7261    4.9826   -7.6799 C   0  0  0  0  0  0  0  0  0  0  0  0
   -7.1995    5.8120   -6.9616 O   0  0  0  0  0  0  0  0  0  0  0  0
   -7.5892    4.9564   -9.1121 C   0  0  0  0  0  0  0  0  0  0  0  0
   -6.9917    5.9007   -9.8986 C   0  0  0  0  0  0  0  0  0  0  0  0
   -7.0830    5.6933  -11.2616 C   0  0  0  0  0  0  0  0  0  0  0  0
   -7.7405    4.5630  -11.8004 C   0  0  0  0  0  0  0  0  0  0  0  0
   -7.7622    4.4425  -13.1808 N   0  0  0  0  0  0  0  0  0  0  0  0
   -7.2629    5.4048  -14.2787 C   0  0  0  0  0  0  0  0  0  0  0  0
   -6.8248    6.4840  -14.1973 O   0  0  0  0  0  0  0  0  0  0  0  0
   -7.3653    4.8384  -15.6274 C   0  0  0  0  0  0  0  0  0  0  0  0
   -8.5858    4.4264  -16.1420 C   0  0  0  0  0  0  0  0  0  0  0  0
   -8.6718    4.1912  -17.5085 C   0  0  0  0  0  0  0  0  0  0  0  0
  -10.2001    3.8546  -18.1964 Cl  0  0  0  0  0  0  0  0  0  0  0  0
   -7.5615    4.3313  -18.3413 C   0  0  0  0  0  0  0  0  0  0  0  0
   -6.3380    4.7094  -17.8017 C   0  0  0  0  0  0  0  0  0  0  0  0
   -5.2382    4.8830  -18.6291 N   0  0  0  0  0  0  0  0  0  0  0  0
   -3.7772    5.1780  -18.2906 C   0  0  0  0  0  0  0  0  0  0  0  0
   -3.2412    5.2479  -17.2619 O   0  0  0  0  0  0  0  0  0  0  0  0
   -3.1753    5.4273  -19.4827 O   0  0  0  0  0  0  0  0  0  0  0  0
   -1.7729    5.7286  -19.4041 C   0  0  0  0  0  0  0  0  0  0  0  0
   -1.4947    7.2155  -19.3589 C   0  0  0  0  0  0  0  0  0  0  0  0
   -2.2563    8.1078  -18.5897 C   0  0  0  0  0  0  0  0  0  0  0  0
   -1.9633    9.4730  -18.5828 C   0  0  0  0  0  0  0  0  0  0  0  0
   -0.8948    9.9610  -19.3298 C   0  0  0  0  0  0  0  0  0  0  0  0
   -0.1074    9.0833  -20.0702 C   0  0  0  0  0  0  0  0  0  0  0  0
   -0.4002    7.7194  -20.0778 C   0  0  0  0  0  0  0  0  0  0  0  0
   -6.2369    4.9558  -16.4399 C   0  0  0  0  0  0  0  0  0  0  0  0
   -8.3420    3.6123  -10.9714 C   0  0  0  0  0  0  0  0  0  0  0  0
   -8.2605    3.8557   -9.6128 C   0  0  0  0  0  0  0  0  0  0  0  0
   -8.9080    3.2178   -8.4703 C   0  0  0  0  0  0  0  0  0  0  0  0
   -9.7131    2.3189   -8.5952 O   0  0  0  0  0  0  0  0  0  0  0  0
  -10.4960    4.4037   -6.0555 C   0  0  0  0  0  0  0  0  0  0  0  0
  -10.7829    5.5919   -5.9419 O   0  0  0  0  0  0  0  0  0  0  0  0
  -11.4204    3.4413   -6.3638 N   0  0  0  0  0  0  0  0  0  0  0  0
  1  2  2  0
  2  3  1  0
  3  4  1  0
  4  5  1  0
  5  6  1  6
  6  7  1  0
  7  8  2  0
  7  9  1  0
  9 10  2  0
 10 11  1  0
 11 12  2  0
 12 13  1  0
 13 14  1  0
 14 15  2  0
 14 16  1  0
 16 17  2  0
 17 18  1  0
 18 19  1  0
 18 20  2  0
 20 21  1  0
 21 22  1  0
 22 23  1  0
 23 24  2  0
 23 25  1  0
 25 26  1  0
 26 27  1  0
 27 28  2  0
 28 29  1  0
 29 30  2  0
 30 31  1  0
 31 32  2  0
 21 33  2  0
 12 34  1  0
 34 35  2  0
 35 36  1  0
 36 37  2  0
  5 38  1  0
 38 39  2  0
 38 40  1  0
 40  2  1  0
 36  6  1  0
 35  9  1  0
 33 16  1  0
 32 27  1  0
M  END
>  <name>  (487) 
P118509

>  <alias>  (487) 
None

>  <smina_score_min>  (487) 
-7.057

>  <exports>  (487) 
['/opt/xchem-fragalysis-2/maxwin/BulkDock/OUTPUTS/openbind_xx01zvns2b_c2_elabs_1LOUTNY.sdf', '/opt/xchem-fragalysis-2/maxwin/BulkDock/OUTPUTS/openbind_xx01zvns2b_c2_elabs_1LSYIIV.sdf']

>  <tags>  (487) 
syndirella_placed,openbind_xx01zvns2b_c2_elabs,openbind_xx01zvns2b_c2_elabs_scored_6.2plus,syndirella_product,openbind_xx01zvns2b_c2_elabs_scored,openbind_xx01zvns2b_c2_elabs_scored_top80percent,BulkDock Fragalysis export

>  <subsites>  (487) 
1 - Z4590/B/203/1

>  <smiles>  (487) 
O=C1CC[C@@H](N2C(=O)c3ccc(NC(=O)c4cc(Cl)cc(NC(=O)OCc5ccccc5)c4)cc3C2=O)C(=O)N1

>  <HIPPO Pose ID>  (487) 
118509

>  <energy_score>  (487) 
-6.651542

>  <inchikey>  (487) 
HCJSGFNTXPBMNO-JOCHJYFZSA-N

>  <gnina_score_min>  (487) 
6.338

>  <gnina_score>  (487) 
6.449

>  <ref_mols>  (487) 
Z3059a

>  <HIPPO Compound ID>  (487) 
182315

>  <distance_score>  (487) 
1.031586

>  <rmsd(smina/fragmenstein)>  (487) 
1.047

>  <ref_pdb>  (487) 
Z3059a

>  <inspiration_score>  (487) 
None

$$$$
P118511
     RDKit          3D

 40 44  0  0  0  0  0  0  0  0999 V2000
   -7.5459    5.2175   -2.8808 C   0  0  0  0  0  0  0  0  0  0  0  0
   -8.3949    4.7602   -3.9623 N   0  0  0  0  0  0  0  0  0  0  0  0
   -9.3714    5.6499   -4.3960 C   0  0  0  0  0  0  0  0  0  0  0  0
   -9.5537    6.7584   -3.8884 O   0  0  0  0  0  0  0  0  0  0  0  0
  -10.2081    5.2054   -5.5723 C   0  0  0  0  0  0  0  0  0  0  0  0
  -10.2586    3.6909   -5.6278 C   0  0  0  0  0  0  0  0  0  0  0  0
   -8.8522    3.1568   -5.8480 C   0  0  1  0  0  0  0  0  0  0  0  0
   -8.3700    3.4241   -7.1929 N   0  0  0  0  0  0  0  0  0  0  0  0
   -8.7660    2.6278   -8.3666 C   0  0  0  0  0  0  0  0  0  0  0  0
   -8.3712    3.5262   -9.5010 C   0  0  0  0  0  0  0  0  0  0  0  0
   -8.4438    3.3733  -10.8778 C   0  0  0  0  0  0  0  0  0  0  0  0
   -8.0399    4.4605  -11.6720 C   0  0  0  0  0  0  0  0  0  0  0  0
   -7.9870    4.3759  -13.0570 N   0  0  0  0  0  0  0  0  0  0  0  0
   -7.5904    5.4315  -14.1116 C   0  0  0  0  0  0  0  0  0  0  0  0
   -7.3201    6.5608  -13.9880 O   0  0  0  0  0  0  0  0  0  0  0  0
   -7.4952    4.8796  -15.4646 C   0  0  0  0  0  0  0  0  0  0  0  0
   -8.6229    4.4176  -16.1209 C   0  0  0  0  0  0  0  0  0  0  0  0
   -8.5341    4.1891  -17.4877 C   0  0  0  0  0  0  0  0  0  0  0  0
   -9.9527    3.7592  -18.3354 Cl  0  0  0  0  0  0  0  0  0  0  0  0
   -7.3378    4.3762  -18.1834 C   0  0  0  0  0  0  0  0  0  0  0  0
   -6.1990    4.7821  -17.4940 C   0  0  0  0  0  0  0  0  0  0  0  0
   -4.9909    4.9161  -18.1661 N   0  0  0  0  0  0  0  0  0  0  0  0
   -3.6080    5.3178  -17.6534 C   0  0  0  0  0  0  0  0  0  0  0  0
   -3.2367    5.5280  -16.5725 O   0  0  0  0  0  0  0  0  0  0  0  0
   -2.8245    5.3998  -18.7601 O   0  0  0  0  0  0  0  0  0  0  0  0
   -1.4674    5.7989  -18.5195 C   0  0  0  0  0  0  0  0  0  0  0  0
   -1.2996    7.2485  -18.8959 C   0  0  0  0  0  0  0  0  0  0  0  0
   -1.9541    8.2591  -18.1752 C   0  0  0  0  0  0  0  0  0  0  0  0
   -1.8120    9.5972  -18.5425 C   0  0  0  0  0  0  0  0  0  0  0  0
   -1.0042    9.9396  -19.6243 C   0  0  0  0  0  0  0  0  0  0  0  0
   -0.3367    8.9454  -20.3376 C   0  0  0  0  0  0  0  0  0  0  0  0
   -0.4842    7.6058  -19.9767 C   0  0  0  0  0  0  0  0  0  0  0  0
   -6.2807    5.0448  -16.1326 C   0  0  0  0  0  0  0  0  0  0  0  0
   -7.6096    5.6708  -11.0900 C   0  0  0  0  0  0  0  0  0  0  0  0
   -7.5120    5.8105   -9.7227 C   0  0  0  0  0  0  0  0  0  0  0  0
   -7.8733    4.7186   -8.9778 C   0  0  0  0  0  0  0  0  0  0  0  0
   -7.8396    4.6432   -7.5377 C   0  0  0  0  0  0  0  0  0  0  0  0
   -7.4569    5.5516   -6.8234 O   0  0  0  0  0  0  0  0  0  0  0  0
   -7.8897    3.7288   -4.7628 C   0  0  0  0  0  0  0  0  0  0  0  0
   -6.7014    3.3995   -4.6754 O   0  0  0  0  0  0  0  0  0  0  0  0
  1  2  1  0
  2  3  1  0
  3  4  2  0
  3  5  1  0
  5  6  1  0
  6  7  1  0
  7  8  1  6
  8  9  1  0
  9 10  1  0
 10 11  2  0
 11 12  1  0
 12 13  1  0
 13 14  1  0
 14 15  2  0
 14 16  1  0
 16 17  2  0
 17 18  1  0
 18 19  1  0
 18 20  2  0
 20 21  1  0
 21 22  1  0
 22 23  1  0
 23 24  2  0
 23 25  1  0
 25 26  1  0
 26 27  1  0
 27 28  2  0
 28 29  1  0
 29 30  2  0
 30 31  1  0
 31 32  2  0
 21 33  2  0
 12 34  2  0
 34 35  1  0
 35 36  2  0
 36 37  1  0
 37 38  2  0
  7 39  1  0
 39 40  2  0
 39  2  1  0
 37  8  1  0
 36 10  1  0
 33 16  1  0
 32 27  1  0
M  END
>  <name>  (488) 
P118511

>  <alias>  (488) 
None

>  <smina_score_min>  (488) 
-8.377

>  <exports>  (488) 
['/opt/xchem-fragalysis-2/maxwin/BulkDock/OUTPUTS/openbind_xx01zvns2b_c2_elabs_1LOUTNY.sdf', '/opt/xchem-fragalysis-2/maxwin/BulkDock/OUTPUTS/openbind_xx01zvns2b_c2_elabs_1LSYIIV.sdf']

>  <tags>  (488) 
syndirella_placed,openbind_xx01zvns2b_c2_elabs,openbind_xx01zvns2b_c2_elabs_scored_6.2plus,syndirella_product,openbind_xx01zvns2b_c2_elabs_scored,openbind_xx01zvns2b_c2_elabs_scored_top80percent,BulkDock Fragalysis export

>  <subsites>  (488) 
1 - Z4590/B/203/1

>  <smiles>  (488) 
CN1C(=O)CC[C@@H](N2Cc3cc(NC(=O)c4cc(Cl)cc(NC(=O)OCc5ccccc5)c4)ccc3C2=O)C1=O

>  <HIPPO Pose ID>  (488) 
118511

>  <energy_score>  (488) 
-43.958268

>  <inchikey>  (488) 
VODJJSXQLJWJAE-XMMPIXPASA-N

>  <gnina_score_min>  (488) 
6.274

>  <gnina_score>  (488) 
6.259

>  <ref_mols>  (488) 
Z3059a

>  <HIPPO Compound ID>  (488) 
182316

>  <distance_score>  (488) 
0.728026

>  <rmsd(smina/fragmenstein)>  (488) 
1.075

>  <ref_pdb>  (488) 
Z3059a

>  <inspiration_score>  (488) 
None

$$$$
P118512
     RDKit          3D

 40 44  0  0  0  0  0  0  0  0999 V2000
   -9.0979    7.2442   -4.1588 C   0  0  0  0  0  0  0  0  0  0  0  0
   -9.1962    5.8291   -4.4673 N   0  0  0  0  0  0  0  0  0  0  0  0
   -8.2189    4.9976   -3.9438 C   0  0  0  0  0  0  0  0  0  0  0  0
   -7.1930    5.4210   -3.4082 O   0  0  0  0  0  0  0  0  0  0  0  0
   -8.4281    3.5149   -4.1070 C   0  0  0  0  0  0  0  0  0  0  0  0
   -9.7318    3.1538   -4.7858 C   0  0  0  0  0  0  0  0  0  0  0  0
   -9.9529    4.0058   -6.0009 C   0  0  2  0  0  0  0  0  0  0  0  0
   -8.9747    3.7988   -7.0715 N   0  0  0  0  0  0  0  0  0  0  0  0
   -7.8871    4.7192   -7.2894 C   0  0  0  0  0  0  0  0  0  0  0  0
   -7.7280    4.6860   -8.7555 C   0  0  0  0  0  0  0  0  0  0  0  0
   -7.0705    5.6122   -9.5253 C   0  0  0  0  0  0  0  0  0  0  0  0
   -7.1650    5.4738  -10.8989 C   0  0  0  0  0  0  0  0  0  0  0  0
   -7.8631    4.4036  -11.4947 C   0  0  0  0  0  0  0  0  0  0  0  0
   -7.8845    4.3706  -12.8900 N   0  0  0  0  0  0  0  0  0  0  0  0
   -7.3567    5.3928  -13.9293 C   0  0  0  0  0  0  0  0  0  0  0  0
   -6.8918    6.4558  -13.7787 O   0  0  0  0  0  0  0  0  0  0  0  0
   -7.3587    4.8935  -15.3164 C   0  0  0  0  0  0  0  0  0  0  0  0
   -8.5117    4.4415  -15.9442 C   0  0  0  0  0  0  0  0  0  0  0  0
   -8.4670    4.2147  -17.3190 C   0  0  0  0  0  0  0  0  0  0  0  0
   -9.9003    3.7698  -18.1478 Cl  0  0  0  0  0  0  0  0  0  0  0  0
   -7.2909    4.3992  -18.0518 C   0  0  0  0  0  0  0  0  0  0  0  0
   -6.1291    4.8037  -17.4009 C   0  0  0  0  0  0  0  0  0  0  0  0
   -4.9404    4.9123  -18.1152 N   0  0  0  0  0  0  0  0  0  0  0  0
   -3.5062    5.1888  -17.6326 C   0  0  0  0  0  0  0  0  0  0  0  0
   -3.1034    5.4455  -16.5708 O   0  0  0  0  0  0  0  0  0  0  0  0
   -2.6508    5.0084  -18.6762 O   0  0  0  0  0  0  0  0  0  0  0  0
   -2.7416    5.9624  -19.7356 C   0  0  0  0  0  0  0  0  0  0  0  0
   -1.9869    7.2297  -19.4248 C   0  0  0  0  0  0  0  0  0  0  0  0
   -0.6581    7.3839  -19.8401 C   0  0  0  0  0  0  0  0  0  0  0  0
    0.0072    8.5923  -19.6336 C   0  0  0  0  0  0  0  0  0  0  0  0
   -0.6410    9.6462  -18.9913 C   0  0  0  0  0  0  0  0  0  0  0  0
   -1.9467    9.4871  -18.5328 C   0  0  0  0  0  0  0  0  0  0  0  0
   -2.6160    8.2823  -18.7435 C   0  0  0  0  0  0  0  0  0  0  0  0
   -6.1698    5.0685  -16.0386 C   0  0  0  0  0  0  0  0  0  0  0  0
   -8.4990    3.4414  -10.6979 C   0  0  0  0  0  0  0  0  0  0  0  0
   -8.4404    3.6305   -9.3201 C   0  0  0  0  0  0  0  0  0  0  0  0
   -9.2280    3.0301   -8.2185 C   0  0  0  0  0  0  0  0  0  0  0  0
  -10.0476    2.1455   -8.3528 O   0  0  0  0  0  0  0  0  0  0  0  0
  -10.0437    5.4668   -5.5189 C   0  0  0  0  0  0  0  0  0  0  0  0
  -10.7197    6.3046   -6.1166 O   0  0  0  0  0  0  0  0  0  0  0  0
  1  2  1  0
  2  3  1  0
  3  4  2  0
  3  5  1  0
  5  6  1  0
  6  7  1  0
  7  8  1  6
  8  9  1  0
  9 10  1  0
 10 11  2  0
 11 12  1  0
 12 13  2  0
 13 14  1  0
 14 15  1  0
 15 16  2  0
 15 17  1  0
 17 18  2  0
 18 19  1  0
 19 20  1  0
 19 21  2  0
 21 22  1  0
 22 23  1  0
 23 24  1  0
 24 25  2  0
 24 26  1  0
 26 27  1  0
 27 28  1  0
 28 29  2  0
 29 30  1  0
 30 31  2  0
 31 32  1  0
 32 33  2  0
 22 34  2  0
 13 35  1  0
 35 36  2  0
 36 37  1  0
 37 38  2  0
  7 39  1  0
 39 40  2  0
 39  2  1  0
 37  8  1  0
 36 10  1  0
 34 17  1  0
 33 28  1  0
M  END
>  <name>  (489) 
P118512

>  <alias>  (489) 
None

>  <smina_score_min>  (489) 
-8.626

>  <exports>  (489) 
['/opt/xchem-fragalysis-2/maxwin/BulkDock/OUTPUTS/openbind_xx01zvns2b_c2_elabs_1LOUTNY.sdf', '/opt/xchem-fragalysis-2/maxwin/BulkDock/OUTPUTS/openbind_xx01zvns2b_c2_elabs_1LSYIIV.sdf']

>  <tags>  (489) 
syndirella_placed,openbind_xx01zvns2b_c2_elabs,openbind_xx01zvns2b_c2_elabs_scored_6.2plus,syndirella_product,openbind_xx01zvns2b_c2_elabs_scored,openbind_xx01zvns2b_c2_elabs_scored_top80percent,BulkDock Fragalysis export

>  <subsites>  (489) 
1 - Z4590/B/203/1

>  <smiles>  (489) 
CN1C(=O)CC[C@H](N2Cc3ccc(NC(=O)c4cc(Cl)cc(NC(=O)OCc5ccccc5)c4)cc3C2=O)C1=O

>  <HIPPO Pose ID>  (489) 
118512

>  <energy_score>  (489) 
-31.008602

>  <inchikey>  (489) 
ZCVABMDVUGMUSE-DEOSSOPVSA-N

>  <gnina_score_min>  (489) 
6.397

>  <gnina_score>  (489) 
6.167

>  <ref_mols>  (489) 
Z3059a

>  <HIPPO Compound ID>  (489) 
182317

>  <distance_score>  (489) 
0.89101

>  <rmsd(smina/fragmenstein)>  (489) 
1.721

>  <ref_pdb>  (489) 
Z3059a

>  <inspiration_score>  (489) 
None

$$$$
P118527
     RDKit          3D

 30 31  0  0  0  0  0  0  0  0999 V2000
   -2.7543    3.5292   -8.2578 C   0  0  0  0  0  0  0  0  0  0  0  0
   -4.0432    3.8020   -8.8193 N   0  0  0  0  0  0  0  0  0  0  0  0
   -5.0638    2.8599   -9.4895 C   0  0  0  0  0  0  0  0  0  0  0  0
   -4.9839    1.7279   -9.7593 O   0  0  0  0  0  0  0  0  0  0  0  0
   -6.2843    3.6257   -9.9130 C   0  0  0  0  0  0  0  0  0  0  0  0
   -6.6048    3.4842  -11.2739 C   0  0  0  0  0  0  0  0  0  0  0  0
   -7.4799    4.3748  -11.8789 C   0  0  0  0  0  0  0  0  0  0  0  0
   -7.6119    4.3614  -13.2601 N   0  0  0  0  0  0  0  0  0  0  0  0
   -8.1925    5.4126  -14.2170 C   0  0  0  0  0  0  0  0  0  0  0  0
   -8.7228    6.4252  -13.9946 O   0  0  0  0  0  0  0  0  0  0  0  0
   -8.0272    4.9940  -15.6198 C   0  0  0  0  0  0  0  0  0  0  0  0
   -9.1754    4.5710  -16.2692 C   0  0  0  0  0  0  0  0  0  0  0  0
   -9.1401    4.3598  -17.6332 C   0  0  0  0  0  0  0  0  0  0  0  0
  -10.6135    4.0786  -18.4426 Cl  0  0  0  0  0  0  0  0  0  0  0  0
   -7.9503    4.4914  -18.3412 C   0  0  0  0  0  0  0  0  0  0  0  0
   -6.7761    4.9099  -17.6940 C   0  0  0  0  0  0  0  0  0  0  0  0
   -5.5142    5.0916  -18.4914 C   0  0  0  0  0  0  0  0  0  0  0  0
   -5.6140    6.1125  -19.4935 N   0  0  0  0  0  0  0  0  0  0  0  0
   -4.5691    6.6663  -20.4469 C   0  0  0  0  0  0  0  0  0  0  0  0
   -3.4330    6.4442  -20.5305 O   0  0  0  0  0  0  0  0  0  0  0  0
   -5.2319    7.5845  -21.2048 O   0  0  0  0  0  0  0  0  0  0  0  0
   -4.5363    8.3753  -22.2047 C   0  0  0  0  0  0  0  0  0  0  0  0
   -3.4811    9.2793  -21.5568 C   0  0  0  0  0  0  0  0  0  0  0  0
   -5.6177    9.2649  -22.8357 C   0  0  0  0  0  0  0  0  0  0  0  0
   -3.9360    7.4961  -23.3058 C   0  0  0  0  0  0  0  0  0  0  0  0
   -6.8229    5.1672  -16.3131 C   0  0  0  0  0  0  0  0  0  0  0  0
   -8.1462    5.3261  -11.1095 C   0  0  0  0  0  0  0  0  0  0  0  0
   -7.9310    5.3958   -9.7344 C   0  0  0  0  0  0  0  0  0  0  0  0
   -6.9831    4.5630   -9.1327 C   0  0  0  0  0  0  0  0  0  0  0  0
   -6.6736    4.8483   -7.2817 Br  0  0  0  0  0  0  0  0  0  0  0  0
  1  2  1  0
  2  3  1  0
  3  4  2  0
  3  5  1  0
  5  6  2  0
  6  7  1  0
  7  8  1  0
  8  9  1  0
  9 10  2  0
  9 11  1  0
 11 12  2  0
 12 13  1  0
 13 14  1  0
 13 15  2  0
 15 16  1  0
 16 17  1  0
 17 18  1  0
 18 19  1  0
 19 20  2  0
 19 21  1  0
 21 22  1  0
 22 23  1  0
 22 24  1  0
 22 25  1  0
 16 26  2  0
  7 27  2  0
 27 28  1  0
 28 29  2  0
 29 30  1  0
 29  5  1  0
 26 11  1  0
M  END
>  <name>  (490) 
P118527

>  <alias>  (490) 
None

>  <smina_score_min>  (490) 
-7.098

>  <exports>  (490) 
['/opt/xchem-fragalysis-2/maxwin/BulkDock/OUTPUTS/openbind_xx01zvns2b_c2_elabs_1LOUTNY.sdf', '/opt/xchem-fragalysis-2/maxwin/BulkDock/OUTPUTS/openbind_xx01zvns2b_c2_elabs_1LSYIIV.sdf']

>  <tags>  (490) 
syndirella_placed,openbind_xx01zvns2b_c2_elabs,openbind_xx01zvns2b_c2_elabs_scored_6.2plus,syndirella_product,openbind_xx01zvns2b_c2_elabs_scored,openbind_xx01zvns2b_c2_elabs_scored_top80percent,BulkDock Fragalysis export

>  <subsites>  (490) 
1 - Z4590/B/203/1

>  <smiles>  (490) 
CNC(=O)c1cc(NC(=O)c2cc(Cl)cc(CNC(=O)OC(C)(C)C)c2)ccc1Br

>  <HIPPO Pose ID>  (490) 
118527

>  <energy_score>  (490) 
-13.522827

>  <inchikey>  (490) 
CDDGQKAUNOWPNY-UHFFFAOYSA-N

>  <gnina_score_min>  (490) 
6.211

>  <gnina_score>  (490) 
5.857

>  <ref_mols>  (490) 
Z3060a

>  <HIPPO Compound ID>  (490) 
182791

>  <distance_score>  (490) 
1.806063

>  <rmsd(smina/fragmenstein)>  (490) 
0.979

>  <ref_pdb>  (490) 
Z3060a

>  <inspiration_score>  (490) 
None

$$$$
P118696
     RDKit          3D

 37 42  0  0  0  0  0  0  0  0999 V2000
   -8.7859    3.9199   -1.7216 O   0  0  0  0  0  0  0  0  0  0  0  0
   -8.6788    3.9283   -2.9459 C   0  0  0  0  0  0  0  0  0  0  0  0
   -7.3304    4.0020   -3.6217 C   0  0  0  0  0  0  0  0  0  0  0  0
   -7.4509    4.3745   -5.0704 C   0  0  0  0  0  0  0  0  0  0  0  0
   -8.4253    3.4108   -5.7709 C   0  0  2  0  0  0  0  0  0  0  0  0
   -8.5298    3.7133   -7.1723 N   0  0  0  0  0  0  0  0  0  0  0  0
   -8.6150    4.9959   -7.5964 C   0  0  0  0  0  0  0  0  0  0  0  0
   -8.7457    6.0378   -6.9814 O   0  0  0  0  0  0  0  0  0  0  0  0
   -8.5101    4.9454   -9.0208 C   0  0  0  0  0  0  0  0  0  0  0  0
   -8.3660    6.0256   -9.8415 C   0  0  0  0  0  0  0  0  0  0  0  0
   -8.2718    5.7284  -11.1777 C   0  0  0  0  0  0  0  0  0  0  0  0
   -8.3266    4.3938  -11.6547 C   0  0  0  0  0  0  0  0  0  0  0  0
   -8.2070    4.2509  -13.0272 N   0  0  0  0  0  0  0  0  0  0  0  0
   -8.0012    5.3051  -14.1263 C   0  0  0  0  0  0  0  0  0  0  0  0
   -7.9761    6.4692  -14.0624 O   0  0  0  0  0  0  0  0  0  0  0  0
   -7.6954    4.7361  -15.4344 C   0  0  0  0  0  0  0  0  0  0  0  0
   -8.6859    4.1400  -16.2035 C   0  0  0  0  0  0  0  0  0  0  0  0
   -8.4922    3.9937  -17.5776 C   0  0  0  0  0  0  0  0  0  0  0  0
   -7.2980    4.4922  -18.1187 C   0  0  0  0  0  0  0  0  0  0  0  0
   -6.8921    4.6104  -19.4240 N   0  0  0  0  0  0  0  0  0  0  0  0
   -5.6499    5.1889  -19.4897 C   0  0  0  0  0  0  0  0  0  0  0  0
   -5.2325    5.4774  -18.2091 C   0  0  0  0  0  0  0  0  0  0  0  0
   -3.9656    6.1564  -17.7720 C   0  0  0  0  0  0  0  0  0  0  0  0
   -2.7516    5.2159  -17.8198 C   0  0  0  0  0  0  0  0  0  0  0  0
   -1.4461    5.9589  -18.1025 C   0  0  0  0  0  0  0  0  0  0  0  0
   -1.4303    7.2549  -17.4330 N   0  0  0  0  0  0  0  0  0  0  0  0
   -2.4564    8.1604  -17.9553 C   0  0  0  0  0  0  0  0  0  0  0  0
   -3.6885    7.4547  -18.5301 C   0  0  0  0  0  0  0  0  0  0  0  0
   -6.2785    5.0396  -17.3439 C   0  0  0  0  0  0  0  0  0  0  0  0
   -6.4668    5.1364  -15.9643 C   0  0  0  0  0  0  0  0  0  0  0  0
   -8.4660    3.3082  -10.7811 C   0  0  0  0  0  0  0  0  0  0  0  0
   -8.5527    3.6252   -9.4383 C   0  0  0  0  0  0  0  0  0  0  0  0
   -8.6420    2.8209   -8.2109 C   0  0  0  0  0  0  0  0  0  0  0  0
   -8.7762    1.6168   -8.1885 O   0  0  0  0  0  0  0  0  0  0  0  0
   -9.7878    3.5478   -5.1179 C   0  0  0  0  0  0  0  0  0  0  0  0
  -10.8516    3.4266   -5.7153 O   0  0  0  0  0  0  0  0  0  0  0  0
   -9.7695    3.8172   -3.7674 N   0  0  0  0  0  0  0  0  0  0  0  0
  1  2  2  0
  2  3  1  0
  3  4  1  0
  4  5  1  0
  5  6  1  6
  6  7  1  0
  7  8  2  0
  7  9  1  0
  9 10  2  0
 10 11  1  0
 11 12  2  0
 12 13  1  0
 13 14  1  0
 14 15  2  0
 14 16  1  0
 16 17  2  0
 17 18  1  0
 18 19  2  0
 19 20  1  0
 20 21  1  0
 21 22  2  0
 22 23  1  0
 23 24  1  0
 24 25  1  0
 25 26  1  0
 26 27  1  0
 27 28  1  0
 22 29  1  0
 29 30  2  0
 12 31  1  0
 31 32  2  0
 32 33  1  0
 33 34  2  0
  5 35  1  0
 35 36  2  0
 35 37  1  0
 37  2  1  0
 33  6  1  0
 32  9  1  0
 30 16  1  0
 29 19  1  0
 28 23  1  0
M  END
>  <name>  (491) 
P118696

>  <alias>  (491) 
None

>  <smina_score_min>  (491) 
-11.834

>  <exports>  (491) 
['/opt/xchem-fragalysis-2/maxwin/BulkDock/OUTPUTS/openbind_xx01zvns2b_c2_elabs_1LOUTNY.sdf', '/opt/xchem-fragalysis-2/maxwin/BulkDock/OUTPUTS/openbind_xx01zvns2b_c2_elabs_1LSYIIV.sdf']

>  <tags>  (491) 
syndirella_placed,openbind_xx01zvns2b_c2_elabs,openbind_xx01zvns2b_c2_elabs_scored_6.2plus,syndirella_product,openbind_xx01zvns2b_c2_elabs_scored,openbind_xx01zvns2b_c2_elabs_scored_top80percent,BulkDock Fragalysis export

>  <subsites>  (491) 
1 - Z4590/B/203/1

>  <smiles>  (491) 
O=C1CC[C@H](N2C(=O)c3ccc(NC(=O)c4ccc5[nH]cc(C6CCNCC6)c5c4)cc3C2=O)C(=O)N1

>  <HIPPO Pose ID>  (491) 
118696

>  <energy_score>  (491) 
-41.650948

>  <inchikey>  (491) 
PPGZGTZJVMTZDX-QFIPXVFZSA-N

>  <gnina_score_min>  (491) 
6.251

>  <gnina_score>  (491) 
6.206

>  <ref_mols>  (491) 
Z3665a

>  <HIPPO Compound ID>  (491) 
183023

>  <distance_score>  (491) 
0.903052

>  <rmsd(smina/fragmenstein)>  (491) 
0.642

>  <ref_pdb>  (491) 
Z3665a

>  <inspiration_score>  (491) 
None

$$$$
P118740
     RDKit          3D

 33 38  0  0  0  0  0  0  0  0999 V2000
   -3.9255    7.5312  -18.9459 C   0  0  0  0  0  0  0  0  0  0  0  0
   -4.2639    6.0574  -18.7867 C   0  0  1  0  0  0  0  0  0  0  0  0
   -3.2866    5.0902  -19.3993 C   0  0  0  0  0  0  0  0  0  0  0  0
   -2.0131    4.6772  -18.7045 C   0  0  0  0  0  0  0  0  0  0  0  0
   -1.9453    5.4940  -19.9631 C   0  0  0  0  0  0  0  0  0  0  0  0
   -4.6275    5.7179  -17.4083 N   0  0  0  0  0  0  0  0  0  0  0  0
   -3.9043    6.1300  -16.3322 N   0  0  0  0  0  0  0  0  0  0  0  0
   -4.7291    5.8886  -15.3013 C   0  0  0  0  0  0  0  0  0  0  0  0
   -5.9589    5.3207  -15.6985 C   0  0  0  0  0  0  0  0  0  0  0  0
   -7.1964    4.9647  -15.1476 C   0  0  0  0  0  0  0  0  0  0  0  0
   -7.4909    5.3884  -13.7692 C   0  0  0  0  0  0  0  0  0  0  0  0
   -7.4076    6.5347  -13.5546 O   0  0  0  0  0  0  0  0  0  0  0  0
   -7.8258    4.2119  -12.8210 N   0  0  0  0  0  0  0  0  0  0  0  0
   -8.0279    4.1900  -11.4373 C   0  0  0  0  0  0  0  0  0  0  0  0
   -7.8659    5.3862  -10.7148 C   0  0  0  0  0  0  0  0  0  0  0  0
   -7.9580    5.4124   -9.3271 C   0  0  0  0  0  0  0  0  0  0  0  0
   -8.2371    4.2293   -8.6784 C   0  0  0  0  0  0  0  0  0  0  0  0
   -8.4472    3.0416   -9.3728 C   0  0  0  0  0  0  0  0  0  0  0  0
   -8.3315    2.9994  -10.7606 C   0  0  0  0  0  0  0  0  0  0  0  0
   -8.7342    1.9496   -8.3782 C   0  0  0  0  0  0  0  0  0  0  0  0
   -8.8628    2.6353   -7.0399 N   0  0  0  0  0  0  0  0  0  0  0  0
  -10.2682    2.7074   -6.6218 C   0  0  0  0  0  0  0  0  0  0  0  0
  -10.7371    1.5498   -5.7621 C   0  0  0  0  0  0  0  0  0  0  0  0
  -10.6191    0.3943   -6.4486 F   0  0  0  0  0  0  0  0  0  0  0  0
  -12.0568    1.7269   -5.4738 F   0  0  0  0  0  0  0  0  0  0  0  0
   -8.2955    3.9838   -7.2146 C   0  0  0  0  0  0  0  0  0  0  0  0
   -8.1936    4.4774  -16.0048 C   0  0  0  0  0  0  0  0  0  0  0  0
   -7.9340    4.3761  -17.3799 C   0  0  0  0  0  0  0  0  0  0  0  0
   -8.9330    3.9424  -18.4180 C   0  0  0  0  0  0  0  0  0  0  0  0
   -9.4516    2.5361  -18.3484 C   0  0  0  0  0  0  0  0  0  0  0  0
  -10.3898    3.6996  -18.1846 C   0  0  0  0  0  0  0  0  0  0  0  0
   -6.7466    4.7164  -17.9143 N   0  0  0  0  0  0  0  0  0  0  0  0
   -5.8336    5.1801  -17.0609 C   0  0  0  0  0  0  0  0  0  0  0  0
  2  1  1  1
  2  3  1  0
  3  4  1  0
  4  5  1  0
  2  6  1  0
  6  7  1  0
  7  8  2  0
  8  9  1  0
  9 10  2  0
 10 11  1  0
 11 12  2  0
 11 13  1  0
 13 14  1  0
 14 15  2  0
 15 16  1  0
 16 17  2  0
 17 18  1  0
 18 19  2  0
 18 20  1  0
 20 21  1  0
 21 22  1  0
 22 23  1  0
 23 24  1  0
 23 25  1  0
 21 26  1  0
 10 27  1  0
 27 28  2  0
 28 29  1  0
 29 30  1  0
 30 31  1  0
 28 32  1  0
 32 33  2  0
  5  3  1  0
 33  6  1  0
 33  9  1  0
 19 14  1  0
 31 29  1  0
 26 17  1  0
M  END
>  <name>  (492) 
P118740

>  <alias>  (492) 
None

>  <smina_score_min>  (492) 
-8.561

>  <exports>  (492) 
['/opt/xchem-fragalysis-2/maxwin/BulkDock/OUTPUTS/openbind_xx01zvns2b_c2_elabs_1LOUTNY.sdf', '/opt/xchem-fragalysis-2/maxwin/BulkDock/OUTPUTS/openbind_xx01zvns2b_c2_elabs_1LSYIIV.sdf']

>  <tags>  (492) 
syndirella_placed,openbind_xx01zvns2b_c2_elabs,openbind_xx01zvns2b_c2_elabs_scored_6.2plus,syndirella_product,openbind_xx01zvns2b_c2_elabs_scored,openbind_xx01zvns2b_c2_elabs_scored_top80percent,BulkDock Fragalysis export

>  <subsites>  (492) 
1 - Z4590/B/203/1

>  <smiles>  (492) 
C[C@@H](C1CC1)n1ncc2c(C(=O)Nc3ccc4c(c3)CN(CC(F)F)C4)cc(C3CC3)nc21

>  <HIPPO Pose ID>  (492) 
118740

>  <energy_score>  (492) 
-33.221809

>  <inchikey>  (492) 
VPDVXQVICUCDTR-AWEZNQCLSA-N

>  <gnina_score_min>  (492) 
6.643

>  <gnina_score>  (492) 
6.575

>  <ref_mols>  (492) 
Z3468a

>  <HIPPO Compound ID>  (492) 
179716

>  <distance_score>  (492) 
0.66571

>  <rmsd(smina/fragmenstein)>  (492) 
0.419

>  <ref_pdb>  (492) 
Z3468a

>  <inspiration_score>  (492) 
None

$$$$
P118743
     RDKit          3D

 34 39  0  0  0  0  0  0  0  0999 V2000
   -6.6357    4.7393   -2.8862 C   0  0  0  0  0  0  0  0  0  0  0  0
   -7.5259    4.8189   -4.1345 C   0  0  0  0  0  0  0  0  0  0  0  0
   -8.5332    5.9452   -3.9425 C   0  0  0  0  0  0  0  0  0  0  0  0
   -8.1815    3.4484   -4.3978 C   0  0  0  0  0  0  0  0  0  0  0  0
   -9.0734    3.2135   -5.6413 C   0  0  0  0  0  0  0  0  0  0  0  0
   -8.3818    3.5065   -6.8842 N   0  0  0  0  0  0  0  0  0  0  0  0
   -8.4814    4.9098   -7.2619 C   0  0  0  0  0  0  0  0  0  0  0  0
   -8.3326    4.9067   -8.7341 C   0  0  0  0  0  0  0  0  0  0  0  0
   -8.1202    6.0067   -9.5263 C   0  0  0  0  0  0  0  0  0  0  0  0
   -8.0079    5.7920  -10.8849 C   0  0  0  0  0  0  0  0  0  0  0  0
   -8.0878    4.4999  -11.4379 C   0  0  0  0  0  0  0  0  0  0  0  0
   -7.8818    4.3999  -12.8156 N   0  0  0  0  0  0  0  0  0  0  0  0
   -7.5698    5.4923  -13.8671 C   0  0  0  0  0  0  0  0  0  0  0  0
   -7.5127    6.6552  -13.7580 O   0  0  0  0  0  0  0  0  0  0  0  0
   -7.2206    4.9680  -15.1864 C   0  0  0  0  0  0  0  0  0  0  0  0
   -8.2013    4.4762  -16.0537 C   0  0  0  0  0  0  0  0  0  0  0  0
   -7.9025    4.3314  -17.4147 C   0  0  0  0  0  0  0  0  0  0  0  0
   -8.8955    3.9032  -18.4598 C   0  0  0  0  0  0  0  0  0  0  0  0
  -10.3616    3.6939  -18.2377 C   0  0  0  0  0  0  0  0  0  0  0  0
   -9.4450    2.5096  -18.3694 C   0  0  0  0  0  0  0  0  0  0  0  0
   -6.6869    4.6194  -17.9217 N   0  0  0  0  0  0  0  0  0  0  0  0
   -5.7922    5.0921  -17.0512 C   0  0  0  0  0  0  0  0  0  0  0  0
   -5.9608    5.2870  -15.7019 C   0  0  0  0  0  0  0  0  0  0  0  0
   -4.7463    5.8717  -15.2824 C   0  0  0  0  0  0  0  0  0  0  0  0
   -3.8826    6.0634  -16.2906 N   0  0  0  0  0  0  0  0  0  0  0  0
   -4.5595    5.5858  -17.3674 N   0  0  0  0  0  0  0  0  0  0  0  0
   -4.1092    5.7700  -18.7472 C   0  0  1  0  0  0  0  0  0  0  0  0
   -4.7370    7.0271  -19.3555 C   0  0  0  0  0  0  0  0  0  0  0  0
   -2.6155    5.8102  -18.8762 C   0  0  0  0  0  0  0  0  0  0  0  0
   -1.7957    4.5540  -18.8013 C   0  0  0  0  0  0  0  0  0  0  0  0
   -1.9610    5.2636  -20.1183 C   0  0  0  0  0  0  0  0  0  0  0  0
   -8.3283    3.3863  -10.6133 C   0  0  0  0  0  0  0  0  0  0  0  0
   -8.4625    3.6136   -9.2446 C   0  0  0  0  0  0  0  0  0  0  0  0
   -8.7783    2.7036   -8.0815 C   0  0  0  0  0  0  0  0  0  0  0  0
  1  2  1  0
  2  3  1  0
  2  4  1  0
  4  5  1  0
  5  6  1  0
  6  7  1  0
  7  8  1  0
  8  9  2  0
  9 10  1  0
 10 11  2  0
 11 12  1  0
 12 13  1  0
 13 14  2  0
 13 15  1  0
 15 16  2  0
 16 17  1  0
 17 18  1  0
 18 19  1  0
 19 20  1  0
 17 21  2  0
 21 22  1  0
 22 23  2  0
 23 24  1  0
 24 25  2  0
 25 26  1  0
 26 27  1  0
 27 28  1  1
 27 29  1  0
 29 30  1  0
 30 31  1  0
 11 32  1  0
 32 33  2  0
 33 34  1  0
 34  6  1  0
 33  8  1  0
 23 15  1  0
 31 29  1  0
 20 18  1  0
 26 22  1  0
M  END
>  <name>  (493) 
P118743

>  <alias>  (493) 
None

>  <smina_score_min>  (493) 
-7.968

>  <exports>  (493) 
['/opt/xchem-fragalysis-2/maxwin/BulkDock/OUTPUTS/openbind_xx01zvns2b_c2_elabs_1LOUTNY.sdf', '/opt/xchem-fragalysis-2/maxwin/BulkDock/OUTPUTS/openbind_xx01zvns2b_c2_elabs_1LSYIIV.sdf']

>  <tags>  (493) 
syndirella_placed,openbind_xx01zvns2b_c2_elabs,openbind_xx01zvns2b_c2_elabs_scored_6.2plus,syndirella_product,openbind_xx01zvns2b_c2_elabs_scored,openbind_xx01zvns2b_c2_elabs_scored_top80percent,BulkDock Fragalysis export

>  <subsites>  (493) 
1 - Z4590/B/203/1

>  <smiles>  (493) 
CC(C)CCN1Cc2ccc(NC(=O)c3cc(C4CC4)nc4c3cnn4[C@@H](C)C3CC3)cc2C1

>  <HIPPO Pose ID>  (493) 
118743

>  <energy_score>  (493) 
-45.61473

>  <inchikey>  (493) 
ZCVXZBQYANTIHZ-SFHVURJKSA-N

>  <gnina_score_min>  (493) 
6.656

>  <gnina_score>  (493) 
6.683

>  <ref_mols>  (493) 
Z3468a

>  <HIPPO Compound ID>  (493) 
183026

>  <distance_score>  (493) 
0.890992

>  <rmsd(smina/fragmenstein)>  (493) 
0.876

>  <ref_pdb>  (493) 
Z3468a

>  <inspiration_score>  (493) 
None

$$$$
P118744
     RDKit          3D

 34 39  0  0  0  0  0  0  0  0999 V2000
   -7.9174    4.4660   -3.2619 C   0  0  0  0  0  0  0  0  0  0  0  0
   -7.9252    3.6129   -4.5223 C   0  0  0  0  0  0  0  0  0  0  0  0
   -9.3521    3.1924   -4.8891 C   0  0  0  0  0  0  0  0  0  0  0  0
   -9.4959    2.3385   -6.1515 C   0  0  0  0  0  0  0  0  0  0  0  0
   -8.9629    2.9329   -7.3506 N   0  0  0  0  0  0  0  0  0  0  0  0
   -8.8006    2.1432   -8.5717 C   0  0  0  0  0  0  0  0  0  0  0  0
   -8.4327    3.1871   -9.5760 C   0  0  0  0  0  0  0  0  0  0  0  0
   -8.1237    3.0975  -10.9231 C   0  0  0  0  0  0  0  0  0  0  0  0
   -7.8881    4.2967  -11.6112 C   0  0  0  0  0  0  0  0  0  0  0  0
   -7.5610    4.3059  -12.9598 N   0  0  0  0  0  0  0  0  0  0  0  0
   -7.3605    5.4830  -13.9327 C   0  0  0  0  0  0  0  0  0  0  0  0
   -7.3626    6.6337  -13.7388 O   0  0  0  0  0  0  0  0  0  0  0  0
   -7.0235    5.0495  -15.2821 C   0  0  0  0  0  0  0  0  0  0  0  0
   -7.9786    4.5257  -16.1498 C   0  0  0  0  0  0  0  0  0  0  0  0
   -7.6750    4.4282  -17.5129 C   0  0  0  0  0  0  0  0  0  0  0  0
   -8.6655    3.9286  -18.5405 C   0  0  0  0  0  0  0  0  0  0  0  0
  -10.1518    3.8419  -18.3154 C   0  0  0  0  0  0  0  0  0  0  0  0
   -9.3217    2.5910  -18.3389 C   0  0  0  0  0  0  0  0  0  0  0  0
   -6.4805    4.8244  -18.0211 N   0  0  0  0  0  0  0  0  0  0  0  0
   -5.6008    5.3159  -17.1364 C   0  0  0  0  0  0  0  0  0  0  0  0
   -5.7796    5.4306  -15.7770 C   0  0  0  0  0  0  0  0  0  0  0  0
   -4.5915    6.0136  -15.2974 C   0  0  0  0  0  0  0  0  0  0  0  0
   -3.7234    6.2842  -16.2761 N   0  0  0  0  0  0  0  0  0  0  0  0
   -4.3930    5.9065  -17.3984 N   0  0  0  0  0  0  0  0  0  0  0  0
   -3.8681    6.2822  -18.7081 C   0  0  2  0  0  0  0  0  0  0  0  0
   -4.8630    7.1112  -19.5243 C   0  0  0  0  0  0  0  0  0  0  0  0
   -3.4030    5.0779  -19.4737 C   0  0  0  0  0  0  0  0  0  0  0  0
   -2.2313    5.1692  -20.4156 C   0  0  0  0  0  0  0  0  0  0  0  0
   -2.0912    4.4332  -19.1109 C   0  0  0  0  0  0  0  0  0  0  0  0
   -7.9480    5.5427  -10.9518 C   0  0  0  0  0  0  0  0  0  0  0  0
   -8.2369    5.6263   -9.6053 C   0  0  0  0  0  0  0  0  0  0  0  0
   -8.4758    4.4381   -8.9632 C   0  0  0  0  0  0  0  0  0  0  0  0
   -8.8740    4.2860   -7.5802 C   0  0  0  0  0  0  0  0  0  0  0  0
   -9.0887    5.2408   -6.8553 O   0  0  0  0  0  0  0  0  0  0  0  0
  1  2  1  0
  2  3  1  0
  3  4  1  0
  4  5  1  0
  5  6  1  0
  6  7  1  0
  7  8  2  0
  8  9  1  0
  9 10  1  0
 10 11  1  0
 11 12  2  0
 11 13  1  0
 13 14  2  0
 14 15  1  0
 15 16  1  0
 16 17  1  0
 17 18  1  0
 15 19  2  0
 19 20  1  0
 20 21  2  0
 21 22  1  0
 22 23  2  0
 23 24  1  0
 24 25  1  0
 25 26  1  6
 25 27  1  0
 27 28  1  0
 28 29  1  0
  9 30  2  0
 30 31  1  0
 31 32  2  0
 32 33  1  0
 33 34  2  0
 33  5  1  0
 32  7  1  0
 21 13  1  0
 29 27  1  0
 18 16  1  0
 24 20  1  0
M  END
>  <name>  (494) 
P118744

>  <alias>  (494) 
None

>  <smina_score_min>  (494) 
-8.369

>  <exports>  (494) 
['/opt/xchem-fragalysis-2/maxwin/BulkDock/OUTPUTS/openbind_xx01zvns2b_c2_elabs_1LOUTNY.sdf', '/opt/xchem-fragalysis-2/maxwin/BulkDock/OUTPUTS/openbind_xx01zvns2b_c2_elabs_1LSYIIV.sdf']

>  <tags>  (494) 
syndirella_placed,openbind_xx01zvns2b_c2_elabs,openbind_xx01zvns2b_c2_elabs_scored_6.2plus,syndirella_product,openbind_xx01zvns2b_c2_elabs_scored,openbind_xx01zvns2b_c2_elabs_scored_top80percent,BulkDock Fragalysis export

>  <subsites>  (494) 
1 - Z4590/B/203/1

>  <smiles>  (494) 
CCCCN1Cc2cc(NC(=O)c3cc(C4CC4)nc4c3cnn4[C@H](C)C3CC3)ccc2C1=O

>  <HIPPO Pose ID>  (494) 
118744

>  <energy_score>  (494) 
-58.979612

>  <inchikey>  (494) 
NXEDJOVJZCTBGT-MRXNPFEDSA-N

>  <gnina_score_min>  (494) 
6.734

>  <gnina_score>  (494) 
6.692

>  <ref_mols>  (494) 
Z3468a

>  <HIPPO Compound ID>  (494) 
183027

>  <distance_score>  (494) 
0.73777

>  <rmsd(smina/fragmenstein)>  (494) 
0.57

>  <ref_pdb>  (494) 
Z3468a

>  <inspiration_score>  (494) 
None

$$$$
P118763
     RDKit          3D

 35 40  0  0  0  0  0  0  0  0999 V2000
   -8.7623    4.9984   -1.0623 C   0  0  0  0  0  0  0  0  0  0  0  0
   -8.3068    4.7913   -2.4927 C   0  0  0  0  0  0  0  0  0  0  0  0
   -9.2384    3.9310   -3.1379 O   0  0  0  0  0  0  0  0  0  0  0  0
   -8.8224    3.5806   -4.4612 C   0  0  0  0  0  0  0  0  0  0  0  0
   -9.9014    2.7367   -5.1443 C   0  0  0  0  0  0  0  0  0  0  0  0
   -9.4262    1.9418   -6.3659 C   0  0  0  0  0  0  0  0  0  0  0  0
   -9.4248    2.7254   -7.5828 N   0  0  0  0  0  0  0  0  0  0  0  0
   -8.6201    3.9435   -7.5357 C   0  0  0  0  0  0  0  0  0  0  0  0
   -8.3196    4.2165   -8.9609 C   0  0  0  0  0  0  0  0  0  0  0  0
   -7.9306    5.4035   -9.5338 C   0  0  0  0  0  0  0  0  0  0  0  0
   -7.7318    5.4056  -10.9051 C   0  0  0  0  0  0  0  0  0  0  0  0
   -7.8906    4.2322  -11.6672 C   0  0  0  0  0  0  0  0  0  0  0  0
   -7.6210    4.2819  -13.0281 N   0  0  0  0  0  0  0  0  0  0  0  0
   -7.2523    5.4729  -13.9320 C   0  0  0  0  0  0  0  0  0  0  0  0
   -7.0410    6.5888  -13.6644 O   0  0  0  0  0  0  0  0  0  0  0  0
   -7.0553    5.0707  -15.3252 C   0  0  0  0  0  0  0  0  0  0  0  0
   -8.0813    4.5527  -16.1242 C   0  0  0  0  0  0  0  0  0  0  0  0
   -7.8680    4.4111  -17.5023 C   0  0  0  0  0  0  0  0  0  0  0  0
   -8.9025    3.9263  -18.4831 C   0  0  0  0  0  0  0  0  0  0  0  0
   -9.4400    2.5352  -18.3129 C   0  0  0  0  0  0  0  0  0  0  0  0
  -10.3545    3.7208  -18.1817 C   0  0  0  0  0  0  0  0  0  0  0  0
   -6.7000    4.7444  -18.0862 N   0  0  0  0  0  0  0  0  0  0  0  0
   -5.7585    5.2300  -17.2753 C   0  0  0  0  0  0  0  0  0  0  0  0
   -5.8380    5.4050  -15.9167 C   0  0  0  0  0  0  0  0  0  0  0  0
   -4.5948    5.9649  -15.5580 C   0  0  0  0  0  0  0  0  0  0  0  0
   -3.8004    6.1788  -16.6152 N   0  0  0  0  0  0  0  0  0  0  0  0
   -4.5602    5.7537  -17.6608 N   0  0  0  0  0  0  0  0  0  0  0  0
   -4.2218    6.0501  -19.0511 C   0  0  1  0  0  0  0  0  0  0  0  0
   -3.8856    7.5186  -19.2542 C   0  0  0  0  0  0  0  0  0  0  0  0
   -3.2493    5.0636  -19.6365 C   0  0  0  0  0  0  0  0  0  0  0  0
   -1.9919    4.6513  -18.9124 C   0  0  0  0  0  0  0  0  0  0  0  0
   -1.8967    5.4427  -20.1859 C   0  0  0  0  0  0  0  0  0  0  0  0
   -8.2744    3.0311  -11.0652 C   0  0  0  0  0  0  0  0  0  0  0  0
   -8.5072    3.0483   -9.7033 C   0  0  0  0  0  0  0  0  0  0  0  0
   -8.9820    1.9689   -8.7765 C   0  0  0  0  0  0  0  0  0  0  0  0
  1  2  1  0
  2  3  1  0
  3  4  1  0
  4  5  1  0
  5  6  1  0
  6  7  1  0
  7  8  1  0
  8  9  1  0
  9 10  2  0
 10 11  1  0
 11 12  2  0
 12 13  1  0
 13 14  1  0
 14 15  2  0
 14 16  1  0
 16 17  2  0
 17 18  1  0
 18 19  1  0
 19 20  1  0
 20 21  1  0
 18 22  2  0
 22 23  1  0
 23 24  2  0
 24 25  1  0
 25 26  2  0
 26 27  1  0
 27 28  1  0
 28 29  1  1
 28 30  1  0
 30 31  1  0
 31 32  1  0
 12 33  1  0
 33 34  2  0
 34 35  1  0
 35  7  1  0
 34  9  1  0
 24 16  1  0
 32 30  1  0
 21 19  1  0
 27 23  1  0
M  END
>  <name>  (495) 
P118763

>  <alias>  (495) 
None

>  <smina_score_min>  (495) 
-8.289

>  <exports>  (495) 
['/opt/xchem-fragalysis-2/maxwin/BulkDock/OUTPUTS/openbind_xx01zvns2b_c2_elabs_1LOUTNY.sdf', '/opt/xchem-fragalysis-2/maxwin/BulkDock/OUTPUTS/openbind_xx01zvns2b_c2_elabs_1LSYIIV.sdf']

>  <tags>  (495) 
syndirella_placed,openbind_xx01zvns2b_c2_elabs,openbind_xx01zvns2b_c2_elabs_scored_6.2plus,syndirella_product,openbind_xx01zvns2b_c2_elabs_scored,openbind_xx01zvns2b_c2_elabs_scored_top80percent,BulkDock Fragalysis export

>  <subsites>  (495) 
1 - Z4590/B/203/1

>  <smiles>  (495) 
CCOCCCN1Cc2ccc(NC(=O)c3cc(C4CC4)nc4c3cnn4[C@@H](C)C3CC3)cc2C1

>  <HIPPO Pose ID>  (495) 
118763

>  <energy_score>  (495) 
-58.06804

>  <inchikey>  (495) 
YGUKJIURCCRUSA-SFHVURJKSA-N

>  <gnina_score_min>  (495) 
6.909

>  <gnina_score>  (495) 
6.605

>  <ref_mols>  (495) 
Z3468a

>  <HIPPO Compound ID>  (495) 
183038

>  <distance_score>  (495) 
0.759502

>  <rmsd(smina/fragmenstein)>  (495) 
0.994

>  <ref_pdb>  (495) 
Z3468a

>  <inspiration_score>  (495) 
None

$$$$
P118764
     RDKit          3D

 36 41  0  0  0  0  0  0  0  0999 V2000
   -5.2098    6.9007  -19.7036 C   0  0  0  0  0  0  0  0  0  0  0  0
   -4.1336    6.2007  -18.8745 C   0  0  2  0  0  0  0  0  0  0  0  0
   -3.5503    5.0254  -19.6007 C   0  0  0  0  0  0  0  0  0  0  0  0
   -2.3559    5.1939  -20.5055 C   0  0  0  0  0  0  0  0  0  0  0  0
   -2.2033    4.4859  -19.1882 C   0  0  0  0  0  0  0  0  0  0  0  0
   -4.6002    5.8351  -17.5401 N   0  0  0  0  0  0  0  0  0  0  0  0
   -3.8988    6.2937  -16.4663 N   0  0  0  0  0  0  0  0  0  0  0  0
   -4.7194    6.0588  -15.4425 C   0  0  0  0  0  0  0  0  0  0  0  0
   -5.9067    5.4171  -15.8418 C   0  0  0  0  0  0  0  0  0  0  0  0
   -7.1105    5.0276  -15.2590 C   0  0  0  0  0  0  0  0  0  0  0  0
   -7.3695    5.4859  -13.8995 C   0  0  0  0  0  0  0  0  0  0  0  0
   -7.1270    6.6016  -13.6602 O   0  0  0  0  0  0  0  0  0  0  0  0
   -7.8388    4.3470  -12.9777 N   0  0  0  0  0  0  0  0  0  0  0  0
   -8.0112    4.3148  -11.6064 C   0  0  0  0  0  0  0  0  0  0  0  0
   -7.6423    5.4705  -10.8843 C   0  0  0  0  0  0  0  0  0  0  0  0
   -7.7098    5.5108   -9.5078 C   0  0  0  0  0  0  0  0  0  0  0  0
   -8.1988    4.3899   -8.8904 C   0  0  0  0  0  0  0  0  0  0  0  0
   -8.6171    3.2632   -9.5960 C   0  0  0  0  0  0  0  0  0  0  0  0
   -8.4984    3.1771  -10.9653 C   0  0  0  0  0  0  0  0  0  0  0  0
   -9.2163    2.3422   -8.6188 C   0  0  0  0  0  0  0  0  0  0  0  0
   -9.6958    1.2595   -8.8808 O   0  0  0  0  0  0  0  0  0  0  0  0
   -9.1546    2.9882   -7.3883 N   0  0  0  0  0  0  0  0  0  0  0  0
   -9.3483    2.3103   -6.1413 C   0  0  0  0  0  0  0  0  0  0  0  0
   -9.5751    3.2559   -4.9495 C   0  0  0  0  0  0  0  0  0  0  0  0
   -8.3739    3.8678   -4.1533 C   0  0  0  0  0  0  0  0  0  0  0  0
   -8.0498    5.3292   -4.5021 C   0  0  0  0  0  0  0  0  0  0  0  0
   -8.7028    3.8657   -2.6498 C   0  0  0  0  0  0  0  0  0  0  0  0
   -7.1690    3.1189   -4.3303 O   0  0  0  0  0  0  0  0  0  0  0  0
   -8.3692    4.1799   -7.4479 C   0  0  0  0  0  0  0  0  0  0  0  0
   -8.0613    4.3662  -16.0230 C   0  0  0  0  0  0  0  0  0  0  0  0
   -7.8028    4.1568  -17.3768 C   0  0  0  0  0  0  0  0  0  0  0  0
   -8.8315    3.4375  -18.2174 C   0  0  0  0  0  0  0  0  0  0  0  0
   -9.3969    4.1543  -19.4070 C   0  0  0  0  0  0  0  0  0  0  0  0
  -10.2823    3.8678  -18.2386 C   0  0  0  0  0  0  0  0  0  0  0  0
   -6.6673    4.5926  -17.9961 N   0  0  0  0  0  0  0  0  0  0  0  0
   -5.7737    5.2062  -17.1971 C   0  0  0  0  0  0  0  0  0  0  0  0
  2  1  1  6
  2  3  1  0
  3  4  1  0
  4  5  1  0
  2  6  1  0
  6  7  1  0
  7  8  2  0
  8  9  1  0
  9 10  2  0
 10 11  1  0
 11 12  2  0
 11 13  1  0
 13 14  1  0
 14 15  2  0
 15 16  1  0
 16 17  2  0
 17 18  1  0
 18 19  2  0
 18 20  1  0
 20 21  2  0
 20 22  1  0
 22 23  1  0
 23 24  1  0
 24 25  1  0
 25 26  1  0
 25 27  1  0
 25 28  1  0
 22 29  1  0
 10 30  1  0
 30 31  2  0
 31 32  1  0
 32 33  1  0
 33 34  1  0
 31 35  1  0
 35 36  2  0
  5  3  1  0
 36  6  1  0
 36  9  1  0
 19 14  1  0
 34 32  1  0
 29 17  1  0
M  END
>  <name>  (496) 
P118764

>  <alias>  (496) 
None

>  <smina_score_min>  (496) 
-8.994

>  <exports>  (496) 
['/opt/xchem-fragalysis-2/maxwin/BulkDock/OUTPUTS/openbind_xx01zvns2b_c2_elabs_1LOUTNY.sdf', '/opt/xchem-fragalysis-2/maxwin/BulkDock/OUTPUTS/openbind_xx01zvns2b_c2_elabs_1LSYIIV.sdf']

>  <tags>  (496) 
syndirella_placed,openbind_xx01zvns2b_c2_elabs,openbind_xx01zvns2b_c2_elabs_scored_6.2plus,syndirella_product,openbind_xx01zvns2b_c2_elabs_scored,openbind_xx01zvns2b_c2_elabs_scored_top80percent,BulkDock Fragalysis export

>  <subsites>  (496) 
1 - Z4590/B/203/1

>  <smiles>  (496) 
C[C@H](C1CC1)n1ncc2c(C(=O)Nc3ccc4c(c3)C(=O)N(CCC(C)(C)O)C4)cc(C3CC3)nc21

>  <HIPPO Pose ID>  (496) 
118764

>  <energy_score>  (496) 
-54.290438

>  <inchikey>  (496) 
XONIUKBGOPAMDH-MRXNPFEDSA-N

>  <gnina_score_min>  (496) 
6.576

>  <gnina_score>  (496) 
6.775

>  <ref_mols>  (496) 
Z3468a

>  <HIPPO Compound ID>  (496) 
183040

>  <distance_score>  (496) 
0.785689

>  <rmsd(smina/fragmenstein)>  (496) 
0.919

>  <ref_pdb>  (496) 
Z3468a

>  <inspiration_score>  (496) 
None

$$$$
P118766
     RDKit          3D

 37 43  0  0  0  0  0  0  0  0999 V2000
   -4.6537    7.0346  -19.5410 C   0  0  0  0  0  0  0  0  0  0  0  0
   -4.4658    5.6123  -19.0140 C   0  0  1  0  0  0  0  0  0  0  0  0
   -3.1414    5.0152  -19.4239 C   0  0  0  0  0  0  0  0  0  0  0  0
   -1.8284    5.6970  -19.1373 C   0  0  0  0  0  0  0  0  0  0  0  0
   -2.1545    4.3946  -18.4657 C   0  0  0  0  0  0  0  0  0  0  0  0
   -4.8247    5.5292  -17.5942 N   0  0  0  0  0  0  0  0  0  0  0  0
   -4.1452    6.2114  -16.6294 N   0  0  0  0  0  0  0  0  0  0  0  0
   -4.9689    6.1547  -15.5744 C   0  0  0  0  0  0  0  0  0  0  0  0
   -6.1648    5.4616  -15.8488 C   0  0  0  0  0  0  0  0  0  0  0  0
   -7.3892    5.1798  -15.2398 C   0  0  0  0  0  0  0  0  0  0  0  0
   -7.7282    5.8230  -13.9707 C   0  0  0  0  0  0  0  0  0  0  0  0
   -7.6811    6.9854  -13.9074 O   0  0  0  0  0  0  0  0  0  0  0  0
   -8.0722    4.7794  -12.8958 N   0  0  0  0  0  0  0  0  0  0  0  0
   -8.3288    4.9316  -11.5442 C   0  0  0  0  0  0  0  0  0  0  0  0
   -8.4829    6.2261  -11.0045 C   0  0  0  0  0  0  0  0  0  0  0  0
   -8.3979    6.4553   -9.6333 C   0  0  0  0  0  0  0  0  0  0  0  0
   -8.1048    5.3673   -8.8558 C   0  0  0  0  0  0  0  0  0  0  0  0
   -8.0169    4.1066   -9.3869 C   0  0  0  0  0  0  0  0  0  0  0  0
   -8.1943    3.8207  -10.7230 C   0  0  0  0  0  0  0  0  0  0  0  0
   -7.1596    3.4373   -8.3723 C   0  0  1  0  0  0  0  0  0  0  0  0
   -5.7027    3.9206   -8.5744 C   0  0  0  0  0  0  0  0  0  0  0  0
   -5.8249    5.2821   -7.9114 C   0  0  0  0  0  0  0  0  0  0  0  0
   -7.3241    5.2415   -7.5836 C   0  0  2  0  0  0  0  0  0  0  0  0
   -7.5283    3.8692   -6.9413 N   0  0  0  0  0  0  0  0  0  0  0  0
   -8.8576    3.7999   -6.1937 C   0  0  0  0  0  0  0  0  0  0  0  0
   -9.9270    3.4729   -6.5680 O   0  0  0  0  0  0  0  0  0  0  0  0
   -8.5449    4.2301   -4.7376 C   0  0  0  0  0  0  0  0  0  0  0  0
   -9.4230    3.7589   -3.8114 F   0  0  0  0  0  0  0  0  0  0  0  0
   -7.2957    3.8587   -4.3074 F   0  0  0  0  0  0  0  0  0  0  0  0
   -8.5725    5.5946   -4.6123 F   0  0  0  0  0  0  0  0  0  0  0  0
   -8.3480    4.4448  -15.9343 C   0  0  0  0  0  0  0  0  0  0  0  0
   -8.0837    4.0583  -17.2440 C   0  0  0  0  0  0  0  0  0  0  0  0
   -9.1365    3.3688  -18.0681 C   0  0  0  0  0  0  0  0  0  0  0  0
   -9.5428    4.0562  -19.3444 C   0  0  0  0  0  0  0  0  0  0  0  0
  -10.5272    3.9354  -18.2276 C   0  0  0  0  0  0  0  0  0  0  0  0
   -6.9165    4.3369  -17.8686 N   0  0  0  0  0  0  0  0  0  0  0  0
   -6.0200    5.0245  -17.1468 C   0  0  0  0  0  0  0  0  0  0  0  0
  2  1  1  1
  2  3  1  0
  3  4  1  0
  4  5  1  0
  2  6  1  0
  6  7  1  0
  7  8  2  0
  8  9  1  0
  9 10  2  0
 10 11  1  0
 11 12  2  0
 11 13  1  0
 13 14  1  0
 14 15  2  0
 15 16  1  0
 16 17  2  0
 17 18  1  0
 18 19  2  0
 18 20  1  0
 20 21  1  6
 21 22  1  0
 23 22  1  6
 23 24  1  0
 24 25  1  0
 25 26  2  0
 25 27  1  0
 27 28  1  0
 27 29  1  0
 27 30  1  0
 10 31  1  0
 31 32  2  0
 32 33  1  0
 33 34  1  0
 34 35  1  0
 32 36  1  0
 36 37  2  0
  5  3  1  0
 37  6  1  0
 37  9  1  0
 19 14  1  0
 24 20  1  0
 35 33  1  0
 23 17  1  0
M  END
>  <name>  (497) 
P118766

>  <alias>  (497) 
None

>  <smina_score_min>  (497) 
-8.329

>  <exports>  (497) 
['/opt/xchem-fragalysis-2/maxwin/BulkDock/OUTPUTS/openbind_xx01zvns2b_c2_elabs_1LOUTNY.sdf', '/opt/xchem-fragalysis-2/maxwin/BulkDock/OUTPUTS/openbind_xx01zvns2b_c2_elabs_1LSYIIV.sdf']

>  <tags>  (497) 
syndirella_placed,openbind_xx01zvns2b_c2_elabs,openbind_xx01zvns2b_c2_elabs_scored_6.2plus,syndirella_product,openbind_xx01zvns2b_c2_elabs_scored,openbind_xx01zvns2b_c2_elabs_scored_top80percent,BulkDock Fragalysis export

>  <subsites>  (497) 
1 - Z4590/B/203/1

>  <smiles>  (497) 
C[C@@H](C1CC1)n1ncc2c(C(=O)Nc3ccc4c(c3)[C@H]3CC[C@@H]4N3C(=O)C(F)(F)F)cc(C3CC3)nc21

>  <HIPPO Pose ID>  (497) 
118766

>  <energy_score>  (497) 
-15.735491

>  <inchikey>  (497) 
FLZTVNORSOCGNH-IXHHGASFSA-N

>  <gnina_score_min>  (497) 
6.808

>  <gnina_score>  (497) 
6.881

>  <ref_mols>  (497) 
Z3468a

>  <HIPPO Compound ID>  (497) 
183041

>  <distance_score>  (497) 
1.324228

>  <rmsd(smina/fragmenstein)>  (497) 
0.762

>  <ref_pdb>  (497) 
Z3468a

>  <inspiration_score>  (497) 
None

$$$$
P118770
     RDKit          3D

 37 43  0  0  0  0  0  0  0  0999 V2000
   -4.2494    7.2660  -19.5366 C   0  0  0  0  0  0  0  0  0  0  0  0
   -4.1773    5.8081  -19.0964 C   0  0  1  0  0  0  0  0  0  0  0  0
   -2.8983    5.1278  -19.5055 C   0  0  0  0  0  0  0  0  0  0  0  0
   -2.0340    4.3354  -18.5574 C   0  0  0  0  0  0  0  0  0  0  0  0
   -1.5488    5.6517  -19.0952 C   0  0  0  0  0  0  0  0  0  0  0  0
   -4.5669    5.6626  -17.6941 N   0  0  0  0  0  0  0  0  0  0  0  0
   -3.8656    6.2081  -16.6625 N   0  0  0  0  0  0  0  0  0  0  0  0
   -4.6849    6.0407  -15.6145 C   0  0  0  0  0  0  0  0  0  0  0  0
   -5.9046    5.4311  -15.9699 C   0  0  0  0  0  0  0  0  0  0  0  0
   -7.1346    5.1071  -15.4035 C   0  0  0  0  0  0  0  0  0  0  0  0
   -7.4165    5.5668  -14.0508 C   0  0  0  0  0  0  0  0  0  0  0  0
   -7.4009    6.7164  -13.8544 O   0  0  0  0  0  0  0  0  0  0  0  0
   -7.6371    4.3908  -13.0810 N   0  0  0  0  0  0  0  0  0  0  0  0
   -7.9665    4.3837  -11.7338 C   0  0  0  0  0  0  0  0  0  0  0  0
   -8.0292    5.6215  -11.0606 C   0  0  0  0  0  0  0  0  0  0  0  0
   -8.3027    5.6852   -9.7082 C   0  0  0  0  0  0  0  0  0  0  0  0
   -8.5026    4.4846   -9.0755 C   0  0  0  0  0  0  0  0  0  0  0  0
   -8.4435    3.2388   -9.7044 C   0  0  0  0  0  0  0  0  0  0  0  0
   -8.1837    3.1730  -11.0601 C   0  0  0  0  0  0  0  0  0  0  0  0
   -8.6645    2.1611   -8.6918 C   0  0  0  0  0  0  0  0  0  0  0  0
   -8.6834    2.9379   -7.4587 N   0  0  0  0  0  0  0  0  0  0  0  0
   -8.7051    2.3295   -6.1548 C   0  0  1  0  0  0  0  0  0  0  0  0
   -7.9260    3.1290   -5.0982 C   0  0  0  0  0  0  0  0  0  0  0  0
   -8.9887    3.6007   -4.1616 C   0  0  0  0  0  0  0  0  0  0  0  0
   -8.7882    4.2164   -3.1237 O   0  0  0  0  0  0  0  0  0  0  0  0
  -10.1931    3.1705   -4.6012 N   0  0  0  0  0  0  0  0  0  0  0  0
  -10.1156    2.3088   -5.6405 C   0  0  0  0  0  0  0  0  0  0  0  0
  -11.0515    1.6787   -6.0987 O   0  0  0  0  0  0  0  0  0  0  0  0
   -8.7390    4.2913   -7.6611 C   0  0  0  0  0  0  0  0  0  0  0  0
   -8.8988    5.1893   -6.8560 O   0  0  0  0  0  0  0  0  0  0  0  0
   -8.1396    4.5577  -16.2032 C   0  0  0  0  0  0  0  0  0  0  0  0
   -7.8930    4.3625  -17.5645 C   0  0  0  0  0  0  0  0  0  0  0  0
   -8.9171    3.8598  -18.5430 C   0  0  0  0  0  0  0  0  0  0  0  0
  -10.3742    3.6757  -18.2464 C   0  0  0  0  0  0  0  0  0  0  0  0
   -9.4664    2.4797  -18.3313 C   0  0  0  0  0  0  0  0  0  0  0  0
   -6.7039    4.6508  -18.1249 N   0  0  0  0  0  0  0  0  0  0  0  0
   -5.7839    5.1771  -17.3131 C   0  0  0  0  0  0  0  0  0  0  0  0
  2  1  1  1
  2  3  1  0
  3  4  1  0
  4  5  1  0
  2  6  1  0
  6  7  1  0
  7  8  2  0
  8  9  1  0
  9 10  2  0
 10 11  1  0
 11 12  2  0
 11 13  1  0
 13 14  1  0
 14 15  2  0
 15 16  1  0
 16 17  2  0
 17 18  1  0
 18 19  2  0
 18 20  1  0
 20 21  1  0
 22 21  1  6
 22 23  1  0
 23 24  1  0
 24 25  2  0
 24 26  1  0
 26 27  1  0
 27 28  2  0
 21 29  1  0
 29 30  2  0
 10 31  1  0
 31 32  2  0
 32 33  1  0
 33 34  1  0
 34 35  1  0
 32 36  1  0
 36 37  2  0
  5  3  1  0
 37  6  1  0
 37  9  1  0
 19 14  1  0
 27 22  1  0
 35 33  1  0
 29 17  1  0
M  END
>  <name>  (498) 
P118770

>  <alias>  (498) 
None

>  <smina_score_min>  (498) 
-8.069

>  <exports>  (498) 
['/opt/xchem-fragalysis-2/maxwin/BulkDock/OUTPUTS/openbind_xx01zvns2b_c2_elabs_1LOUTNY.sdf', '/opt/xchem-fragalysis-2/maxwin/BulkDock/OUTPUTS/openbind_xx01zvns2b_c2_elabs_1LSYIIV.sdf']

>  <tags>  (498) 
syndirella_placed,openbind_xx01zvns2b_c2_elabs,openbind_xx01zvns2b_c2_elabs_scored_6.2plus,syndirella_product,openbind_xx01zvns2b_c2_elabs_scored,openbind_xx01zvns2b_c2_elabs_scored_top80percent,BulkDock Fragalysis export

>  <subsites>  (498) 
1 - Z4590/B/203/1

>  <smiles>  (498) 
C[C@@H](C1CC1)n1ncc2c(C(=O)Nc3ccc4c(c3)CN([C@H]3CC(=O)NC3=O)C4=O)cc(C3CC3)nc21

>  <HIPPO Pose ID>  (498) 
118770

>  <energy_score>  (498) 
-16.76582

>  <inchikey>  (498) 
FTELBAKXLKWJQH-XMHCIUCPSA-N

>  <gnina_score_min>  (498) 
6.626

>  <gnina_score>  (498) 
6.687

>  <ref_mols>  (498) 
Z3468a

>  <HIPPO Compound ID>  (498) 
183042

>  <distance_score>  (498) 
0.886518

>  <rmsd(smina/fragmenstein)>  (498) 
0.591

>  <ref_pdb>  (498) 
Z3468a

>  <inspiration_score>  (498) 
None

$$$$
P118776
     RDKit          3D

 38 44  0  0  0  0  0  0  0  0999 V2000
   -5.3162    6.8705  -19.6485 C   0  0  0  0  0  0  0  0  0  0  0  0
   -4.2184    6.1964  -18.8274 C   0  0  2  0  0  0  0  0  0  0  0  0
   -3.6165    5.0317  -19.5573 C   0  0  0  0  0  0  0  0  0  0  0  0
   -2.2507    4.5217  -19.1649 C   0  0  0  0  0  0  0  0  0  0  0  0
   -2.4384    5.2245  -20.4798 C   0  0  0  0  0  0  0  0  0  0  0  0
   -4.6573    5.8281  -17.4834 N   0  0  0  0  0  0  0  0  0  0  0  0
   -3.9038    6.2487  -16.4306 N   0  0  0  0  0  0  0  0  0  0  0  0
   -4.6772    5.9883  -15.3772 C   0  0  0  0  0  0  0  0  0  0  0  0
   -5.8966    5.3787  -15.7363 C   0  0  0  0  0  0  0  0  0  0  0  0
   -7.0713    4.9722  -15.0916 C   0  0  0  0  0  0  0  0  0  0  0  0
   -7.1699    5.3374  -13.6757 C   0  0  0  0  0  0  0  0  0  0  0  0
   -6.8560    6.4318  -13.4155 O   0  0  0  0  0  0  0  0  0  0  0  0
   -7.5789    4.1692  -12.7560 N   0  0  0  0  0  0  0  0  0  0  0  0
   -7.5958    4.0757  -11.3738 C   0  0  0  0  0  0  0  0  0  0  0  0
   -6.7518    4.9927  -10.7095 C   0  0  0  0  0  0  0  0  0  0  0  0
   -6.5699    4.9440   -9.3461 C   0  0  0  0  0  0  0  0  0  0  0  0
   -7.3066    4.0042   -8.6767 C   0  0  0  0  0  0  0  0  0  0  0  0
   -8.2335    3.1566   -9.2792 C   0  0  0  0  0  0  0  0  0  0  0  0
   -8.3341    3.1217  -10.6637 C   0  0  0  0  0  0  0  0  0  0  0  0
   -9.0209    2.4892   -8.1937 C   0  0  0  0  0  0  0  0  0  0  0  0
   -8.6056    3.2470   -6.9920 N   0  0  0  0  0  0  0  0  0  0  0  0
   -9.5942    3.9226   -6.1582 C   0  0  2  0  0  0  0  0  0  0  0  0
   -9.3982    5.4471   -6.0056 C   0  0  0  0  0  0  0  0  0  0  0  0
   -8.5318    5.8666   -4.8115 C   0  0  1  0  0  0  0  0  0  0  0  0
   -9.2495    6.7794   -4.0804 F   0  0  0  0  0  0  0  0  0  0  0  0
   -8.1265    4.7266   -3.8750 C   0  0  0  0  0  0  0  0  0  0  0  0
   -9.1434    3.7143   -3.7526 N   0  0  0  0  0  0  0  0  0  0  0  0
   -9.8045    3.2118   -4.8409 C   0  0  0  0  0  0  0  0  0  0  0  0
  -10.5458    2.2378   -4.7579 O   0  0  0  0  0  0  0  0  0  0  0  0
   -7.4253    3.9241   -7.2361 C   0  0  0  0  0  0  0  0  0  0  0  0
   -6.6992    4.5368   -6.4710 O   0  0  0  0  0  0  0  0  0  0  0  0
   -8.0639    4.3471  -15.8345 C   0  0  0  0  0  0  0  0  0  0  0  0
   -7.8684    4.1797  -17.2101 C   0  0  0  0  0  0  0  0  0  0  0  0
   -8.9152    3.4585  -18.0287 C   0  0  0  0  0  0  0  0  0  0  0  0
   -9.3859    4.1049  -19.3008 C   0  0  0  0  0  0  0  0  0  0  0  0
  -10.3310    3.9701  -18.1507 C   0  0  0  0  0  0  0  0  0  0  0  0
   -6.7638    4.6320  -17.8733 N   0  0  0  0  0  0  0  0  0  0  0  0
   -5.8283    5.2142  -17.1029 C   0  0  0  0  0  0  0  0  0  0  0  0
  2  1  1  6
  2  3  1  0
  3  4  1  0
  4  5  1  0
  2  6  1  0
  6  7  1  0
  7  8  2  0
  8  9  1  0
  9 10  2  0
 10 11  1  0
 11 12  2  0
 11 13  1  0
 13 14  1  0
 14 15  2  0
 15 16  1  0
 16 17  2  0
 17 18  1  0
 18 19  2  0
 18 20  1  0
 20 21  1  0
 22 21  1  1
 22 23  1  0
 23 24  1  0
 24 25  1  1
 24 26  1  0
 26 27  1  0
 27 28  1  0
 28 29  2  0
 21 30  1  0
 30 31  2  0
 10 32  1  0
 32 33  2  0
 33 34  1  0
 34 35  1  0
 35 36  1  0
 33 37  1  0
 37 38  2  0
  5  3  1  0
 38  6  1  0
 38  9  1  0
 19 14  1  0
 28 22  1  0
 36 34  1  0
 30 17  1  0
M  END
>  <name>  (499) 
P118776

>  <alias>  (499) 
None

>  <smina_score_min>  (499) 
-9.558

>  <exports>  (499) 
['/opt/xchem-fragalysis-2/maxwin/BulkDock/OUTPUTS/openbind_xx01zvns2b_c2_elabs_1LOUTNY.sdf', '/opt/xchem-fragalysis-2/maxwin/BulkDock/OUTPUTS/openbind_xx01zvns2b_c2_elabs_1LSYIIV.sdf']

>  <tags>  (499) 
syndirella_placed,openbind_xx01zvns2b_c2_elabs,openbind_xx01zvns2b_c2_elabs_scored_6.2plus,syndirella_product,openbind_xx01zvns2b_c2_elabs_scored,openbind_xx01zvns2b_c2_elabs_scored_top80percent,BulkDock Fragalysis export

>  <subsites>  (499) 
1 - Z4590/B/203/1

>  <smiles>  (499) 
C[C@H](C1CC1)n1ncc2c(C(=O)Nc3ccc4c(c3)CN([C@@H]3C[C@@H](F)CNC3=O)C4=O)cc(C3CC3)nc21

>  <HIPPO Pose ID>  (499) 
118776

>  <energy_score>  (499) 
-38.790909

>  <inchikey>  (499) 
MOCZOCFWGHSRLC-CLNHLTTHSA-N

>  <gnina_score_min>  (499) 
6.736

>  <gnina_score>  (499) 
6.757

>  <ref_mols>  (499) 
Z3468a

>  <HIPPO Compound ID>  (499) 
183043

>  <distance_score>  (499) 
0.859918

>  <rmsd(smina/fragmenstein)>  (499) 
0.822

>  <ref_pdb>  (499) 
Z3468a

>  <inspiration_score>  (499) 
None

$$$$
P118780
     RDKit          3D

 38 44  0  0  0  0  0  0  0  0999 V2000
   -4.2629    7.2787  -19.4559 C   0  0  0  0  0  0  0  0  0  0  0  0
   -4.1942    5.8099  -19.0531 C   0  0  1  0  0  0  0  0  0  0  0  0
   -2.9276    5.1292  -19.4999 C   0  0  0  0  0  0  0  0  0  0  0  0
   -1.5661    5.6487  -19.1241 C   0  0  0  0  0  0  0  0  0  0  0  0
   -2.0391    4.3315  -18.5787 C   0  0  0  0  0  0  0  0  0  0  0  0
   -4.5619    5.6273  -17.6489 N   0  0  0  0  0  0  0  0  0  0  0  0
   -3.8496    6.1533  -16.6149 N   0  0  0  0  0  0  0  0  0  0  0  0
   -4.6497    5.9460  -15.5589 C   0  0  0  0  0  0  0  0  0  0  0  0
   -5.8652    5.3213  -15.9073 C   0  0  0  0  0  0  0  0  0  0  0  0
   -7.0837    4.9698  -15.3244 C   0  0  0  0  0  0  0  0  0  0  0  0
   -7.3634    5.4667  -13.9821 C   0  0  0  0  0  0  0  0  0  0  0  0
   -7.2837    6.6240  -13.8407 O   0  0  0  0  0  0  0  0  0  0  0  0
   -7.6637    4.3499  -12.9559 N   0  0  0  0  0  0  0  0  0  0  0  0
   -8.0097    4.4284  -11.6099 C   0  0  0  0  0  0  0  0  0  0  0  0
   -8.1508    5.7281  -11.0798 C   0  0  0  0  0  0  0  0  0  0  0  0
   -8.4550    5.9345   -9.7536 C   0  0  0  0  0  0  0  0  0  0  0  0
   -8.6144    4.8080   -8.9907 C   0  0  0  0  0  0  0  0  0  0  0  0
   -8.4679    3.4992   -9.4523 C   0  0  0  0  0  0  0  0  0  0  0  0
   -8.1769    3.2900  -10.7963 C   0  0  0  0  0  0  0  0  0  0  0  0
   -8.6427    2.5639   -8.2855 C   0  0  0  0  0  0  0  0  0  0  0  0
   -8.7089    3.5103   -7.1588 N   0  0  0  0  0  0  0  0  0  0  0  0
   -8.3557    3.2340   -5.7763 C   0  0  1  0  0  0  0  0  0  0  0  0
   -7.2718    4.2257   -5.2905 C   0  0  0  0  0  0  0  0  0  0  0  0
   -6.9999    4.1140   -3.8125 C   0  0  0  0  0  0  0  0  0  0  0  0
   -8.2634    4.2084   -3.0069 C   0  0  0  0  0  0  0  0  0  0  0  0
   -8.2505    4.4738   -1.8070 O   0  0  0  0  0  0  0  0  0  0  0  0
   -9.4237    3.8957   -3.6534 N   0  0  0  0  0  0  0  0  0  0  0  0
   -9.5933    3.3141   -4.8921 C   0  0  0  0  0  0  0  0  0  0  0  0
  -10.6857    2.8463   -5.2045 O   0  0  0  0  0  0  0  0  0  0  0  0
   -8.8798    4.8052   -7.5707 C   0  0  0  0  0  0  0  0  0  0  0  0
   -9.1094    5.8025   -6.9114 O   0  0  0  0  0  0  0  0  0  0  0  0
   -8.1019    4.4506  -16.1311 C   0  0  0  0  0  0  0  0  0  0  0  0
   -7.8759    4.3062  -17.5045 C   0  0  0  0  0  0  0  0  0  0  0  0
   -8.9091    3.8473  -18.4951 C   0  0  0  0  0  0  0  0  0  0  0  0
  -10.3672    3.6708  -18.2068 C   0  0  0  0  0  0  0  0  0  0  0  0
   -9.4723    2.4678  -18.3270 C   0  0  0  0  0  0  0  0  0  0  0  0
   -6.6960    4.6137  -18.0735 N   0  0  0  0  0  0  0  0  0  0  0  0
   -5.7660    5.1165  -17.2604 C   0  0  0  0  0  0  0  0  0  0  0  0
  2  1  1  1
  2  3  1  0
  3  4  1  0
  4  5  1  0
  2  6  1  0
  6  7  1  0
  7  8  2  0
  8  9  1  0
  9 10  2  0
 10 11  1  0
 11 12  2  0
 11 13  1  0
 13 14  1  0
 14 15  2  0
 15 16  1  0
 16 17  2  0
 17 18  1  0
 18 19  2  0
 18 20  1  0
 20 21  1  0
 22 21  1  6
 22 23  1  0
 23 24  1  0
 24 25  1  0
 25 26  2  0
 25 27  1  0
 27 28  1  0
 28 29  2  0
 21 30  1  0
 30 31  2  0
 10 32  1  0
 32 33  2  0
 33 34  1  0
 34 35  1  0
 35 36  1  0
 33 37  1  0
 37 38  2  0
  5  3  1  0
 38  6  1  0
 38  9  1  0
 19 14  1  0
 28 22  1  0
 36 34  1  0
 30 17  1  0
M  END
>  <name>  (500) 
P118780

>  <alias>  (500) 
None

>  <smina_score_min>  (500) 
-9.276

>  <exports>  (500) 
['/opt/xchem-fragalysis-2/maxwin/BulkDock/OUTPUTS/openbind_xx01zvns2b_c2_elabs_1LOUTNY.sdf', '/opt/xchem-fragalysis-2/maxwin/BulkDock/OUTPUTS/openbind_xx01zvns2b_c2_elabs_1LSYIIV.sdf']

>  <tags>  (500) 
syndirella_placed,openbind_xx01zvns2b_c2_elabs,openbind_xx01zvns2b_c2_elabs_scored_6.2plus,syndirella_product,openbind_xx01zvns2b_c2_elabs_scored,openbind_xx01zvns2b_c2_elabs_scored_top80percent,BulkDock Fragalysis export

>  <subsites>  (500) 
1 - Z4590/B/203/1

>  <smiles>  (500) 
C[C@@H](C1CC1)n1ncc2c(C(=O)Nc3ccc4c(c3)CN([C@H]3CCC(=O)NC3=O)C4=O)cc(C3CC3)nc21

>  <HIPPO Pose ID>  (500) 
118780

>  <energy_score>  (500) 
-42.514392

>  <inchikey>  (500) 
OXFBDOBVIMMYJR-PSLXWICFSA-N

>  <gnina_score_min>  (500) 
6.86

>  <gnina_score>  (500) 
6.752

>  <ref_mols>  (500) 
Z3468a

>  <HIPPO Compound ID>  (500) 
183044

>  <distance_score>  (500) 
0.925996

>  <rmsd(smina/fragmenstein)>  (500) 
0.976

>  <ref_pdb>  (500) 
Z3468a

>  <inspiration_score>  (500) 
None

$$$$
P118783
     RDKit          3D

 38 44  0  0  0  0  0  0  0  0999 V2000
   -4.8512    7.1172  -19.4421 C   0  0  0  0  0  0  0  0  0  0  0  0
   -3.8793    6.2746  -18.6109 C   0  0  2  0  0  0  0  0  0  0  0  0
   -3.4072    5.0744  -19.3788 C   0  0  0  0  0  0  0  0  0  0  0  0
   -2.0914    4.4330  -19.0231 C   0  0  0  0  0  0  0  0  0  0  0  0
   -2.2372    5.1770  -20.3224 C   0  0  0  0  0  0  0  0  0  0  0  0
   -4.4373    5.8966  -17.3139 N   0  0  0  0  0  0  0  0  0  0  0  0
   -3.8069    6.2897  -16.1737 N   0  0  0  0  0  0  0  0  0  0  0  0
   -4.7113    6.0386  -15.2224 C   0  0  0  0  0  0  0  0  0  0  0  0
   -5.8846    5.4512  -15.7324 C   0  0  0  0  0  0  0  0  0  0  0  0
   -7.1500    5.0855  -15.2780 C   0  0  0  0  0  0  0  0  0  0  0  0
   -7.5594    5.5535  -13.9587 C   0  0  0  0  0  0  0  0  0  0  0  0
   -7.5764    6.7083  -13.7930 O   0  0  0  0  0  0  0  0  0  0  0  0
   -7.8464    4.3996  -12.9795 N   0  0  0  0  0  0  0  0  0  0  0  0
   -8.1122    4.4182  -11.6176 C   0  0  0  0  0  0  0  0  0  0  0  0
   -8.0557    5.6696  -10.9580 C   0  0  0  0  0  0  0  0  0  0  0  0
   -8.2456    5.7804   -9.5915 C   0  0  0  0  0  0  0  0  0  0  0  0
   -8.5015    4.6106   -8.9276 C   0  0  0  0  0  0  0  0  0  0  0  0
   -8.5827    3.3775   -9.5522 C   0  0  0  0  0  0  0  0  0  0  0  0
   -8.3828    3.2410  -10.9128 C   0  0  0  0  0  0  0  0  0  0  0  0
   -8.8428    2.3966   -8.5000 C   0  0  0  0  0  0  0  0  0  0  0  0
   -9.0640    1.2230   -8.6993 O   0  0  0  0  0  0  0  0  0  0  0  0
   -8.7677    3.0816   -7.3190 N   0  0  0  0  0  0  0  0  0  0  0  0
   -8.7485    2.4708   -6.0186 C   0  0  1  0  0  0  0  0  0  0  0  0
   -7.7449    3.1330   -5.0611 C   0  0  0  0  0  0  0  0  0  0  0  0
   -8.5867    3.7397   -3.9956 C   0  0  0  0  0  0  0  0  0  0  0  0
   -8.1640    4.3373   -3.0176 O   0  0  0  0  0  0  0  0  0  0  0  0
   -9.8787    3.4578   -4.2496 N   0  0  0  0  0  0  0  0  0  0  0  0
  -10.0755    2.6723   -5.3395 C   0  0  0  0  0  0  0  0  0  0  0  0
  -11.1683    2.2814   -5.7075 O   0  0  0  0  0  0  0  0  0  0  0  0
   -8.6862    4.4221   -7.5090 C   0  0  0  0  0  0  0  0  0  0  0  0
   -8.7238    5.3277   -6.6965 O   0  0  0  0  0  0  0  0  0  0  0  0
   -8.0699    4.5457  -16.1719 C   0  0  0  0  0  0  0  0  0  0  0  0
   -7.7160    4.4228  -17.5198 C   0  0  0  0  0  0  0  0  0  0  0  0
   -8.6751    3.9109  -18.5687 C   0  0  0  0  0  0  0  0  0  0  0  0
   -9.3246    2.5694  -18.3724 C   0  0  0  0  0  0  0  0  0  0  0  0
  -10.1660    3.8133  -18.3793 C   0  0  0  0  0  0  0  0  0  0  0  0
   -6.5030    4.8067  -17.9911 N   0  0  0  0  0  0  0  0  0  0  0  0
   -5.6546    5.3105  -17.0830 C   0  0  0  0  0  0  0  0  0  0  0  0
  2  1  1  6
  2  3  1  0
  3  4  1  0
  4  5  1  0
  2  6  1  0
  6  7  1  0
  7  8  2  0
  8  9  1  0
  9 10  2  0
 10 11  1  0
 11 12  2  0
 11 13  1  0
 13 14  1  0
 14 15  2  0
 15 16  1  0
 16 17  2  0
 17 18  1  0
 18 19  2  0
 18 20  1  0
 20 21  2  0
 20 22  1  0
 23 22  1  6
 23 24  1  0
 24 25  1  0
 25 26  2  0
 25 27  1  0
 27 28  1  0
 28 29  2  0
 22 30  1  0
 30 31  2  0
 10 32  1  0
 32 33  2  0
 33 34  1  0
 34 35  1  0
 35 36  1  0
 33 37  1  0
 37 38  2  0
  5  3  1  0
 38  6  1  0
 38  9  1  0
 19 14  1  0
 28 23  1  0
 36 34  1  0
 30 17  1  0
M  END
>  <name>  (501) 
P118783

>  <alias>  (501) 
None

>  <smina_score_min>  (501) 
-8.623

>  <exports>  (501) 
['/opt/xchem-fragalysis-2/maxwin/BulkDock/OUTPUTS/openbind_xx01zvns2b_c2_elabs_1LOUTNY.sdf', '/opt/xchem-fragalysis-2/maxwin/BulkDock/OUTPUTS/openbind_xx01zvns2b_c2_elabs_1LSYIIV.sdf']

>  <tags>  (501) 
syndirella_placed,openbind_xx01zvns2b_c2_elabs,openbind_xx01zvns2b_c2_elabs_scored_6.2plus,syndirella_product,openbind_xx01zvns2b_c2_elabs_scored,openbind_xx01zvns2b_c2_elabs_scored_top80percent,BulkDock Fragalysis export

>  <subsites>  (501) 
1 - Z4590/B/203/1

>  <smiles>  (501) 
C[C@H](C1CC1)n1ncc2c(C(=O)Nc3ccc4c(c3)C(=O)N([C@H]3CC(=O)NC3=O)C4=O)cc(C3CC3)nc21

>  <HIPPO Pose ID>  (501) 
118783

>  <energy_score>  (501) 
-57.384315

>  <inchikey>  (501) 
RFJDKKCDDAJYTG-GTJPDFRWSA-N

>  <gnina_score_min>  (501) 
6.582

>  <gnina_score>  (501) 
6.607

>  <ref_mols>  (501) 
Z3468a

>  <HIPPO Compound ID>  (501) 
183045

>  <distance_score>  (501) 
0.78668

>  <rmsd(smina/fragmenstein)>  (501) 
0.62

>  <ref_pdb>  (501) 
Z3468a

>  <inspiration_score>  (501) 
None

$$$$
P118786
     RDKit          3D

 38 44  0  0  0  0  0  0  0  0999 V2000
   -4.7666    6.9900  -19.3256 C   0  0  0  0  0  0  0  0  0  0  0  0
   -4.1500    5.7508  -18.6678 C   0  0  1  0  0  0  0  0  0  0  0  0
   -2.6530    5.7944  -18.7755 C   0  0  0  0  0  0  0  0  0  0  0  0
   -1.9879    5.2889  -20.0312 C   0  0  0  0  0  0  0  0  0  0  0  0
   -1.8226    4.5428  -18.7358 C   0  0  0  0  0  0  0  0  0  0  0  0
   -4.6325    5.6082  -17.2916 N   0  0  0  0  0  0  0  0  0  0  0  0
   -3.9666    6.0888  -16.2094 N   0  0  0  0  0  0  0  0  0  0  0  0
   -4.8575    5.9413  -15.2165 C   0  0  0  0  0  0  0  0  0  0  0  0
   -6.0840    5.3903  -15.6498 C   0  0  0  0  0  0  0  0  0  0  0  0
   -7.3618    5.1029  -15.1500 C   0  0  0  0  0  0  0  0  0  0  0  0
   -7.6770    5.5508  -13.7860 C   0  0  0  0  0  0  0  0  0  0  0  0
   -7.5785    6.6958  -13.5754 O   0  0  0  0  0  0  0  0  0  0  0  0
   -7.9940    4.3792  -12.8283 N   0  0  0  0  0  0  0  0  0  0  0  0
   -8.1565    4.3602  -11.4408 C   0  0  0  0  0  0  0  0  0  0  0  0
   -8.2648    3.1419  -10.7552 C   0  0  0  0  0  0  0  0  0  0  0  0
   -7.9378    3.0579   -9.3886 C   0  0  0  0  0  0  0  0  0  0  0  0
   -7.5075    4.2065   -8.7645 C   0  0  0  0  0  0  0  0  0  0  0  0
   -7.5508    5.4063   -9.4004 C   0  0  0  0  0  0  0  0  0  0  0  0
   -7.9068    5.5271  -10.7271 C   0  0  0  0  0  0  0  0  0  0  0  0
   -6.6426    6.2499   -8.5591 C   0  0  2  0  0  0  0  0  0  0  0  0
   -5.1829    5.9194   -8.9202 C   0  0  0  0  0  0  0  0  0  0  0  0
   -5.0949    4.5551   -8.2450 C   0  0  0  0  0  0  0  0  0  0  0  0
   -6.5200    4.5001   -7.6683 C   0  0  1  0  0  0  0  0  0  0  0  0
   -6.7031    5.8991   -7.0751 N   0  0  0  0  0  0  0  0  0  0  0  0
   -7.8338    5.9337   -6.1185 C   0  0  0  0  0  0  0  0  0  0  0  0
   -8.9668    6.1631   -6.2934 O   0  0  0  0  0  0  0  0  0  0  0  0
   -7.2485    5.6402   -4.9220 O   0  0  0  0  0  0  0  0  0  0  0  0
   -8.0073    5.4742   -3.7062 C   0  0  0  0  0  0  0  0  0  0  0  0
   -8.8952    4.2349   -3.8166 C   0  0  0  0  0  0  0  0  0  0  0  0
   -8.7640    6.7523   -3.3377 C   0  0  0  0  0  0  0  0  0  0  0  0
   -6.9541    5.2127   -2.6160 C   0  0  0  0  0  0  0  0  0  0  0  0
   -8.3252    4.5955  -16.0265 C   0  0  0  0  0  0  0  0  0  0  0  0
   -7.9970    4.4139  -17.3777 C   0  0  0  0  0  0  0  0  0  0  0  0
   -8.9673    3.9740  -18.4384 C   0  0  0  0  0  0  0  0  0  0  0  0
  -10.4228    3.6950  -18.2362 C   0  0  0  0  0  0  0  0  0  0  0  0
   -9.4545    2.5550  -18.3864 C   0  0  0  0  0  0  0  0  0  0  0  0
   -6.7681    4.6747  -17.8661 N   0  0  0  0  0  0  0  0  0  0  0  0
   -5.8856    5.1556  -16.9893 C   0  0  0  0  0  0  0  0  0  0  0  0
  2  1  1  1
  2  3  1  0
  3  4  1  0
  4  5  1  0
  2  6  1  0
  6  7  1  0
  7  8  2  0
  8  9  1  0
  9 10  2  0
 10 11  1  0
 11 12  2  0
 11 13  1  0
 13 14  1  0
 14 15  2  0
 15 16  1  0
 16 17  2  0
 17 18  1  0
 18 19  2  0
 18 20  1  0
 20 21  1  6
 21 22  1  0
 23 22  1  6
 23 24  1  0
 24 25  1  0
 25 26  2  0
 25 27  1  0
 27 28  1  0
 28 29  1  0
 28 30  1  0
 28 31  1  0
 10 32  1  0
 32 33  2  0
 33 34  1  0
 34 35  1  0
 35 36  1  0
 33 37  1  0
 37 38  2  0
  5  3  1  0
 38  6  1  0
 38  9  1  0
 19 14  1  0
 24 20  1  0
 36 34  1  0
 23 17  1  0
M  END
>  <name>  (502) 
P118786

>  <alias>  (502) 
None

>  <smina_score_min>  (502) 
-8.529

>  <exports>  (502) 
['/opt/xchem-fragalysis-2/maxwin/BulkDock/OUTPUTS/openbind_xx01zvns2b_c2_elabs_1LOUTNY.sdf', '/opt/xchem-fragalysis-2/maxwin/BulkDock/OUTPUTS/openbind_xx01zvns2b_c2_elabs_1LSYIIV.sdf']

>  <tags>  (502) 
syndirella_placed,openbind_xx01zvns2b_c2_elabs,openbind_xx01zvns2b_c2_elabs_scored_6.2plus,syndirella_product,openbind_xx01zvns2b_c2_elabs_scored,openbind_xx01zvns2b_c2_elabs_scored_top80percent,BulkDock Fragalysis export

>  <subsites>  (502) 
1 - Z4590/B/203/1

>  <smiles>  (502) 
C[C@@H](C1CC1)n1ncc2c(C(=O)Nc3ccc4c(c3)[C@@H]3CC[C@H]4N3C(=O)OC(C)(C)C)cc(C3CC3)nc21

>  <HIPPO Pose ID>  (502) 
118786

>  <energy_score>  (502) 
-0.114613

>  <inchikey>  (502) 
MRDNLEFPLJREHO-HKFLSJHISA-N

>  <gnina_score_min>  (502) 
6.898

>  <gnina_score>  (502) 
6.865

>  <ref_mols>  (502) 
Z3468a

>  <HIPPO Compound ID>  (502) 
183046

>  <distance_score>  (502) 
1.787175

>  <rmsd(smina/fragmenstein)>  (502) 
0.445

>  <ref_pdb>  (502) 
Z3468a

>  <inspiration_score>  (502) 
None

$$$$
P118787
     RDKit          3D

 38 44  0  0  0  0  0  0  0  0999 V2000
   -4.8945    6.7961   -2.3602 C   0  0  0  0  0  0  0  0  0  0  0  0
   -4.3569    5.6335   -3.1980 C   0  0  0  0  0  0  0  0  0  0  0  0
   -3.7871    4.5313   -2.3010 C   0  0  0  0  0  0  0  0  0  0  0  0
   -5.4133    5.0869   -4.1406 C   0  0  0  0  0  0  0  0  0  0  0  0
   -5.2006    5.1166   -5.5270 C   0  0  0  0  0  0  0  0  0  0  0  0
   -6.1661    4.6133   -6.4100 C   0  0  0  0  0  0  0  0  0  0  0  0
   -7.3853    4.0983   -5.9363 C   0  0  0  0  0  0  0  0  0  0  0  0
   -8.5185    3.8968   -6.7563 N   0  0  0  0  0  0  0  0  0  0  0  0
   -8.8776    5.2433   -7.2378 C   0  0  0  0  0  0  0  0  0  0  0  0
   -8.5707    5.1970   -8.6980 C   0  0  0  0  0  0  0  0  0  0  0  0
   -8.4677    6.2672   -9.5558 C   0  0  0  0  0  0  0  0  0  0  0  0
   -8.1968    6.0067  -10.8927 C   0  0  0  0  0  0  0  0  0  0  0  0
   -8.0343    4.6958  -11.3752 C   0  0  0  0  0  0  0  0  0  0  0  0
   -7.7737    4.5377  -12.7422 N   0  0  0  0  0  0  0  0  0  0  0  0
   -7.4816    5.5925  -13.8392 C   0  0  0  0  0  0  0  0  0  0  0  0
   -7.4890    6.7610  -13.7886 O   0  0  0  0  0  0  0  0  0  0  0  0
   -7.1569    5.0207  -15.1533 C   0  0  0  0  0  0  0  0  0  0  0  0
   -8.1705    4.5142  -15.9850 C   0  0  0  0  0  0  0  0  0  0  0  0
   -7.9199    4.3394  -17.3528 C   0  0  0  0  0  0  0  0  0  0  0  0
   -8.9368    3.9343  -18.3840 C   0  0  0  0  0  0  0  0  0  0  0  0
   -9.4574    2.5282  -18.3358 C   0  0  0  0  0  0  0  0  0  0  0  0
  -10.3907    3.6909  -18.1428 C   0  0  0  0  0  0  0  0  0  0  0  0
   -6.7191    4.5970  -17.8961 N   0  0  0  0  0  0  0  0  0  0  0  0
   -5.7972    5.0985  -17.0758 C   0  0  0  0  0  0  0  0  0  0  0  0
   -5.9180    5.3344  -15.7270 C   0  0  0  0  0  0  0  0  0  0  0  0
   -4.6952    5.9503  -15.3830 C   0  0  0  0  0  0  0  0  0  0  0  0
   -3.8788    6.1268  -16.4347 N   0  0  0  0  0  0  0  0  0  0  0  0
   -4.5868    5.5956  -17.4686 N   0  0  0  0  0  0  0  0  0  0  0  0
   -4.2367    5.7965  -18.8789 C   0  0  1  0  0  0  0  0  0  0  0  0
   -4.3154    7.2692  -19.2687 C   0  0  0  0  0  0  0  0  0  0  0  0
   -2.9831    5.1189  -19.3670 C   0  0  0  0  0  0  0  0  0  0  0  0
   -2.0396    4.3573  -18.4726 C   0  0  0  0  0  0  0  0  0  0  0  0
   -1.6121    5.6662  -19.0706 C   0  0  0  0  0  0  0  0  0  0  0  0
   -8.1297    3.6117  -10.4892 C   0  0  0  0  0  0  0  0  0  0  0  0
   -8.3793    3.8883   -9.1405 C   0  0  0  0  0  0  0  0  0  0  0  0
   -8.4822    2.9748   -7.9509 C   0  0  0  0  0  0  0  0  0  0  0  0
   -7.5764    4.0427   -4.5499 C   0  0  0  0  0  0  0  0  0  0  0  0
   -6.6085    4.5291   -3.6633 C   0  0  0  0  0  0  0  0  0  0  0  0
  1  2  1  0
  2  3  1  0
  2  4  1  0
  4  5  2  0
  5  6  1  0
  6  7  2  0
  7  8  1  0
  8  9  1  0
  9 10  1  0
 10 11  2  0
 11 12  1  0
 12 13  2  0
 13 14  1  0
 14 15  1  0
 15 16  2  0
 15 17  1  0
 17 18  2  0
 18 19  1  0
 19 20  1  0
 20 21  1  0
 21 22  1  0
 19 23  2  0
 23 24  1  0
 24 25  2  0
 25 26  1  0
 26 27  2  0
 27 28  1  0
 28 29  1  0
 29 30  1  1
 29 31  1  0
 31 32  1  0
 32 33  1  0
 13 34  1  0
 34 35  2  0
 35 36  1  0
  7 37  1  0
 37 38  2  0
 38  4  1  0
 36  8  1  0
 35 10  1  0
 25 17  1  0
 33 31  1  0
 22 20  1  0
 28 24  1  0
M  END
>  <name>  (503) 
P118787

>  <alias>  (503) 
None

>  <smina_score_min>  (503) 
-8.5

>  <exports>  (503) 
['/opt/xchem-fragalysis-2/maxwin/BulkDock/OUTPUTS/openbind_xx01zvns2b_c2_elabs_1LOUTNY.sdf', '/opt/xchem-fragalysis-2/maxwin/BulkDock/OUTPUTS/openbind_xx01zvns2b_c2_elabs_1LSYIIV.sdf']

>  <tags>  (503) 
syndirella_placed,openbind_xx01zvns2b_c2_elabs,openbind_xx01zvns2b_c2_elabs_scored_6.2plus,syndirella_product,openbind_xx01zvns2b_c2_elabs_scored,openbind_xx01zvns2b_c2_elabs_scored_top80percent,BulkDock Fragalysis export

>  <subsites>  (503) 
1 - Z4590/B/203/1

>  <smiles>  (503) 
CC(C)c1ccc(N2Cc3ccc(NC(=O)c4cc(C5CC5)nc5c4cnn5[C@@H](C)C4CC4)cc3C2)cc1

>  <HIPPO Pose ID>  (503) 
118787

>  <energy_score>  (503) 
-36.715916

>  <inchikey>  (503) 
HUPSLSUNSCIEIJ-FQEVSTJZSA-N

>  <gnina_score_min>  (503) 
6.749

>  <gnina_score>  (503) 
6.875

>  <ref_mols>  (503) 
Z3468a

>  <HIPPO Compound ID>  (503) 
183047

>  <distance_score>  (503) 
1.049683

>  <rmsd(smina/fragmenstein)>  (503) 
0.783

>  <ref_pdb>  (503) 
Z3468a

>  <inspiration_score>  (503) 
None

$$$$
P118791
     RDKit          3D

 38 44  0  0  0  0  0  0  0  0999 V2000
   -3.6155    7.6846  -19.5408 C   0  0  0  0  0  0  0  0  0  0  0  0
   -4.1719    6.2950  -19.3042 C   0  0  1  0  0  0  0  0  0  0  0  0
   -3.3842    5.1493  -19.8855 C   0  0  0  0  0  0  0  0  0  0  0  0
   -2.0819    4.6971  -19.2711 C   0  0  0  0  0  0  0  0  0  0  0  0
   -2.0899    5.3067  -20.6444 C   0  0  0  0  0  0  0  0  0  0  0  0
   -4.4724    6.0616  -17.8990 N   0  0  0  0  0  0  0  0  0  0  0  0
   -3.5998    6.3655  -16.9015 N   0  0  0  0  0  0  0  0  0  0  0  0
   -4.2082    5.8812  -15.8132 C   0  0  0  0  0  0  0  0  0  0  0  0
   -5.4821    5.3600  -16.1044 C   0  0  0  0  0  0  0  0  0  0  0  0
   -6.5453    4.7723  -15.4437 C   0  0  0  0  0  0  0  0  0  0  0  0
   -6.3814    4.5367  -14.0155 C   0  0  0  0  0  0  0  0  0  0  0  0
   -5.4570    3.9415  -13.6454 O   0  0  0  0  0  0  0  0  0  0  0  0
   -7.5496    5.1317  -13.2389 N   0  0  0  0  0  0  0  0  0  0  0  0
   -7.8693    5.0475  -11.9125 C   0  0  0  0  0  0  0  0  0  0  0  0
   -8.4163    6.1555  -11.2558 C   0  0  0  0  0  0  0  0  0  0  0  0
   -8.6174    6.1014   -9.8837 C   0  0  0  0  0  0  0  0  0  0  0  0
   -8.3429    4.9014   -9.2635 C   0  0  0  0  0  0  0  0  0  0  0  0
   -7.8395    3.8058   -9.9278 C   0  0  0  0  0  0  0  0  0  0  0  0
   -7.5546    3.8551  -11.2582 C   0  0  0  0  0  0  0  0  0  0  0  0
   -7.7120    2.7106   -8.9917 C   0  0  0  0  0  0  0  0  0  0  0  0
   -7.2488    1.6319   -9.3002 O   0  0  0  0  0  0  0  0  0  0  0  0
   -8.1817    3.2017   -7.8055 N   0  0  0  0  0  0  0  0  0  0  0  0
   -8.5978    2.3515   -6.7217 C   0  0  1  0  0  0  0  0  0  0  0  0
   -8.3465    3.0398   -5.3777 C   0  0  0  0  0  0  0  0  0  0  0  0
   -9.6094    3.3122   -4.5874 C   0  0  0  0  0  0  0  0  0  0  0  0
  -10.7067    2.3117   -4.8994 C   0  0  0  0  0  0  0  0  0  0  0  0
  -11.0131    2.3239   -6.2817 N   0  0  0  0  0  0  0  0  0  0  0  0
  -10.0197    2.0340   -7.1582 C   0  0  0  0  0  0  0  0  0  0  0  0
  -10.2835    1.6067   -8.2785 O   0  0  0  0  0  0  0  0  0  0  0  0
   -8.5743    4.5077   -7.8976 C   0  0  0  0  0  0  0  0  0  0  0  0
   -9.0666    5.2610   -7.0768 O   0  0  0  0  0  0  0  0  0  0  0  0
   -7.6686    4.3520  -16.1729 C   0  0  0  0  0  0  0  0  0  0  0  0
   -7.6866    4.5260  -17.5615 C   0  0  0  0  0  0  0  0  0  0  0  0
   -8.7832    4.0269  -18.4738 C   0  0  0  0  0  0  0  0  0  0  0  0
  -10.2158    3.8761  -18.0571 C   0  0  0  0  0  0  0  0  0  0  0  0
   -9.3661    2.6567  -18.2695 C   0  0  0  0  0  0  0  0  0  0  0  0
   -6.6761    5.1412  -18.2088 N   0  0  0  0  0  0  0  0  0  0  0  0
   -5.6306    5.5015  -17.4586 C   0  0  0  0  0  0  0  0  0  0  0  0
  2  1  1  1
  2  3  1  0
  3  4  1  0
  4  5  1  0
  2  6  1  0
  6  7  1  0
  7  8  2  0
  8  9  1  0
  9 10  2  0
 10 11  1  0
 11 12  2  0
 11 13  1  0
 13 14  1  0
 14 15  2  0
 15 16  1  0
 16 17  2  0
 17 18  1  0
 18 19  2  0
 18 20  1  0
 20 21  2  0
 20 22  1  0
 23 22  1  6
 23 24  1  0
 24 25  1  0
 25 26  1  0
 26 27  1  0
 27 28  1  0
 28 29  2  0
 22 30  1  0
 30 31  2  0
 10 32  1  0
 32 33  2  0
 33 34  1  0
 34 35  1  0
 35 36  1  0
 33 37  1  0
 37 38  2  0
  5  3  1  0
 38  6  1  0
 38  9  1  0
 19 14  1  0
 28 23  1  0
 36 34  1  0
 30 17  1  0
M  END
>  <name>  (504) 
P118791

>  <alias>  (504) 
None

>  <smina_score_min>  (504) 
-9.214

>  <exports>  (504) 
['/opt/xchem-fragalysis-2/maxwin/BulkDock/OUTPUTS/openbind_xx01zvns2b_c2_elabs_1LOUTNY.sdf', '/opt/xchem-fragalysis-2/maxwin/BulkDock/OUTPUTS/openbind_xx01zvns2b_c2_elabs_1LSYIIV.sdf']

>  <tags>  (504) 
syndirella_placed,openbind_xx01zvns2b_c2_elabs,openbind_xx01zvns2b_c2_elabs_scored_6.2plus,syndirella_product,openbind_xx01zvns2b_c2_elabs_scored,openbind_xx01zvns2b_c2_elabs_scored_top80percent,BulkDock Fragalysis export

>  <subsites>  (504) 
1 - Z4590/B/203/1

>  <smiles>  (504) 
C[C@@H](C1CC1)n1ncc2c(C(=O)Nc3ccc4c(c3)C(=O)N([C@H]3CCCNC3=O)C4=O)cc(C3CC3)nc21

>  <HIPPO Pose ID>  (504) 
118791

>  <energy_score>  (504) 
-41.473478

>  <inchikey>  (504) 
OOGSICUYFMNWHA-PSLXWICFSA-N

>  <gnina_score_min>  (504) 
6.733

>  <gnina_score>  (504) 
6.263

>  <ref_mols>  (504) 
Z3468a

>  <HIPPO Compound ID>  (504) 
183048

>  <distance_score>  (504) 
1.182981

>  <rmsd(smina/fragmenstein)>  (504) 
1.317

>  <ref_pdb>  (504) 
Z3468a

>  <inspiration_score>  (504) 
None

$$$$
P118794
     RDKit          3D

 38 44  0  0  0  0  0  0  0  0999 V2000
   -4.8692    7.1057  -19.3847 C   0  0  0  0  0  0  0  0  0  0  0  0
   -3.8893    6.2516  -18.5749 C   0  0  2  0  0  0  0  0  0  0  0  0
   -3.4059    5.0753  -19.3730 C   0  0  0  0  0  0  0  0  0  0  0  0
   -2.2302    5.2077  -20.3060 C   0  0  0  0  0  0  0  0  0  0  0  0
   -2.0890    4.4320  -19.0250 C   0  0  0  0  0  0  0  0  0  0  0  0
   -4.4420    5.8349  -17.2871 N   0  0  0  0  0  0  0  0  0  0  0  0
   -3.8179    6.2108  -16.1375 N   0  0  0  0  0  0  0  0  0  0  0  0
   -4.7159    5.9157  -15.1925 C   0  0  0  0  0  0  0  0  0  0  0  0
   -5.8755    5.3113  -15.7149 C   0  0  0  0  0  0  0  0  0  0  0  0
   -7.1375    4.9180  -15.2691 C   0  0  0  0  0  0  0  0  0  0  0  0
   -7.5933    5.4413  -13.9904 C   0  0  0  0  0  0  0  0  0  0  0  0
   -7.6446    6.6070  -13.9223 O   0  0  0  0  0  0  0  0  0  0  0  0
   -7.8670    4.3623  -12.9191 N   0  0  0  0  0  0  0  0  0  0  0  0
   -8.1579    4.4878  -11.5636 C   0  0  0  0  0  0  0  0  0  0  0  0
   -8.2769    5.8145  -11.0959 C   0  0  0  0  0  0  0  0  0  0  0  0
   -8.4239    6.1070   -9.7606 C   0  0  0  0  0  0  0  0  0  0  0  0
   -8.4686    5.0404   -8.9046 C   0  0  0  0  0  0  0  0  0  0  0  0
   -8.4176    3.7151   -9.3366 C   0  0  0  0  0  0  0  0  0  0  0  0
   -8.2558    3.4021  -10.6808 C   0  0  0  0  0  0  0  0  0  0  0  0
   -8.4365    2.8851   -8.1077 C   0  0  0  0  0  0  0  0  0  0  0  0
   -8.5245    1.6769   -8.0954 O   0  0  0  0  0  0  0  0  0  0  0  0
   -8.2883    3.7750   -7.0392 N   0  0  0  0  0  0  0  0  0  0  0  0
   -8.1087    3.4695   -5.6244 C   0  0  1  0  0  0  0  0  0  0  0  0
   -7.1459    4.4985   -4.9953 C   0  0  0  0  0  0  0  0  0  0  0  0
   -6.9459    4.2874   -3.5155 C   0  0  0  0  0  0  0  0  0  0  0  0
   -8.2657    4.2121   -2.7963 C   0  0  0  0  0  0  0  0  0  0  0  0
   -8.3672    4.4538   -1.5963 O   0  0  0  0  0  0  0  0  0  0  0  0
   -9.3510    3.8369   -3.5401 N   0  0  0  0  0  0  0  0  0  0  0  0
   -9.4334    3.5490   -4.8873 C   0  0  0  0  0  0  0  0  0  0  0  0
  -10.5267    3.4136   -5.4258 O   0  0  0  0  0  0  0  0  0  0  0  0
   -8.5084    5.1313   -7.4417 C   0  0  0  0  0  0  0  0  0  0  0  0
   -8.0564    4.4085  -16.1794 C   0  0  0  0  0  0  0  0  0  0  0  0
   -7.7046    4.3357  -17.5309 C   0  0  0  0  0  0  0  0  0  0  0  0
   -8.6663    3.8542  -18.5892 C   0  0  0  0  0  0  0  0  0  0  0  0
   -9.3411    2.5241  -18.4042 C   0  0  0  0  0  0  0  0  0  0  0  0
  -10.1596    3.7837  -18.4068 C   0  0  0  0  0  0  0  0  0  0  0  0
   -6.4950    4.7412  -17.9935 N   0  0  0  0  0  0  0  0  0  0  0  0
   -5.6488    5.2218  -17.0708 C   0  0  0  0  0  0  0  0  0  0  0  0
  2  1  1  6
  2  3  1  0
  3  4  1  0
  4  5  1  0
  2  6  1  0
  6  7  1  0
  7  8  2  0
  8  9  1  0
  9 10  2  0
 10 11  1  0
 11 12  2  0
 11 13  1  0
 13 14  1  0
 14 15  2  0
 15 16  1  0
 16 17  2  0
 17 18  1  0
 18 19  2  0
 18 20  1  0
 20 21  2  0
 20 22  1  0
 23 22  1  6
 23 24  1  0
 24 25  1  0
 25 26  1  0
 26 27  2  0
 26 28  1  0
 28 29  1  0
 29 30  2  0
 22 31  1  0
 10 32  1  0
 32 33  2  0
 33 34  1  0
 34 35  1  0
 35 36  1  0
 33 37  1  0
 37 38  2  0
  5  3  1  0
 38  6  1  0
 38  9  1  0
 19 14  1  0
 29 23  1  0
 36 34  1  0
 31 17  1  0
M  END
>  <name>  (505) 
P118794

>  <alias>  (505) 
None

>  <smina_score_min>  (505) 
-9.684

>  <exports>  (505) 
['/opt/xchem-fragalysis-2/maxwin/BulkDock/OUTPUTS/openbind_xx01zvns2b_c2_elabs_1LOUTNY.sdf', '/opt/xchem-fragalysis-2/maxwin/BulkDock/OUTPUTS/openbind_xx01zvns2b_c2_elabs_1LSYIIV.sdf']

>  <tags>  (505) 
syndirella_placed,openbind_xx01zvns2b_c2_elabs,openbind_xx01zvns2b_c2_elabs_scored_6.2plus,syndirella_product,openbind_xx01zvns2b_c2_elabs_scored,openbind_xx01zvns2b_c2_elabs_scored_top80percent,BulkDock Fragalysis export

>  <subsites>  (505) 
1 - Z4590/B/203/1

>  <smiles>  (505) 
C[C@H](C1CC1)n1ncc2c(C(=O)Nc3ccc4c(c3)C(=O)N([C@H]3CCC(=O)NC3=O)C4)cc(C3CC3)nc21

>  <HIPPO Pose ID>  (505) 
118794

>  <energy_score>  (505) 
-57.616225

>  <inchikey>  (505) 
VORNFTKWNVFLRW-FATZIPQQSA-N

>  <gnina_score_min>  (505) 
6.714

>  <gnina_score>  (505) 
6.701

>  <ref_mols>  (505) 
Z3468a

>  <HIPPO Compound ID>  (505) 
183049

>  <distance_score>  (505) 
0.943393

>  <rmsd(smina/fragmenstein)>  (505) 
0.859

>  <ref_pdb>  (505) 
Z3468a

>  <inspiration_score>  (505) 
None

$$$$
P118796
     RDKit          3D

 38 44  0  0  0  0  0  0  0  0999 V2000
   -4.8639    7.1232  -19.1972 C   0  0  0  0  0  0  0  0  0  0  0  0
   -3.9035    6.2429  -18.3905 C   0  0  2  0  0  0  0  0  0  0  0  0
   -3.4207    5.0808  -19.2120 C   0  0  0  0  0  0  0  0  0  0  0  0
   -2.0921    4.4415  -18.9007 C   0  0  0  0  0  0  0  0  0  0  0  0
   -2.2624    5.2389  -20.1641 C   0  0  0  0  0  0  0  0  0  0  0  0
   -4.4808    5.8056  -17.1179 N   0  0  0  0  0  0  0  0  0  0  0  0
   -3.8821    6.1615  -15.9486 N   0  0  0  0  0  0  0  0  0  0  0  0
   -4.7923    5.8338  -15.0249 C   0  0  0  0  0  0  0  0  0  0  0  0
   -5.9390    5.2299  -15.5767 C   0  0  0  0  0  0  0  0  0  0  0  0
   -7.2031    4.8040  -15.1601 C   0  0  0  0  0  0  0  0  0  0  0  0
   -7.7066    5.2895  -13.8812 C   0  0  0  0  0  0  0  0  0  0  0  0
   -7.9646    6.4301  -13.8624 O   0  0  0  0  0  0  0  0  0  0  0  0
   -7.7608    4.2292  -12.7535 N   0  0  0  0  0  0  0  0  0  0  0  0
   -8.0425    4.3666  -11.3937 C   0  0  0  0  0  0  0  0  0  0  0  0
   -8.1434    5.7037  -10.9452 C   0  0  0  0  0  0  0  0  0  0  0  0
   -8.3806    6.0128   -9.6273 C   0  0  0  0  0  0  0  0  0  0  0  0
   -8.5302    4.9469   -8.7824 C   0  0  0  0  0  0  0  0  0  0  0  0
   -8.4455    3.6201   -9.1588 C   0  0  0  0  0  0  0  0  0  0  0  0
   -8.1891    3.2924  -10.4909 C   0  0  0  0  0  0  0  0  0  0  0  0
   -8.5958    2.8418   -7.9020 C   0  0  0  0  0  0  0  0  0  0  0  0
   -8.6089    1.6285   -7.8783 O   0  0  0  0  0  0  0  0  0  0  0  0
   -8.7236    3.7689   -6.8765 N   0  0  0  0  0  0  0  0  0  0  0  0
   -8.2908    3.6529   -5.5375 C   0  0  0  0  0  0  0  0  0  0  0  0
   -7.0382    4.2195   -5.2061 C   0  0  0  0  0  0  0  0  0  0  0  0
   -6.7280    4.5867   -3.8970 C   0  0  0  0  0  0  0  0  0  0  0  0
   -7.6865    4.4176   -2.9147 C   0  0  0  0  0  0  0  0  0  0  0  0
   -7.4200    4.7982   -1.6585 F   0  0  0  0  0  0  0  0  0  0  0  0
   -8.9256    3.8684   -3.2180 C   0  0  0  0  0  0  0  0  0  0  0  0
   -9.2318    3.4715   -4.5278 C   0  0  0  0  0  0  0  0  0  0  0  0
   -8.7278    5.0430   -7.3653 C   0  0  0  0  0  0  0  0  0  0  0  0
   -8.7987    6.1170   -6.7890 O   0  0  0  0  0  0  0  0  0  0  0  0
   -8.1055    4.3354  -16.1115 C   0  0  0  0  0  0  0  0  0  0  0  0
   -7.7331    4.3128  -17.4592 C   0  0  0  0  0  0  0  0  0  0  0  0
   -8.6730    3.8685  -18.5518 C   0  0  0  0  0  0  0  0  0  0  0  0
   -9.3395    2.5271  -18.4302 C   0  0  0  0  0  0  0  0  0  0  0  0
  -10.1683    3.7799  -18.4031 C   0  0  0  0  0  0  0  0  0  0  0  0
   -6.5177    4.7338  -17.8856 N   0  0  0  0  0  0  0  0  0  0  0  0
   -5.6903    5.1868  -16.9333 C   0  0  0  0  0  0  0  0  0  0  0  0
  2  1  1  6
  2  3  1  0
  3  4  1  0
  4  5  1  0
  2  6  1  0
  6  7  1  0
  7  8  2  0
  8  9  1  0
  9 10  2  0
 10 11  1  0
 11 12  2  0
 11 13  1  0
 13 14  1  0
 14 15  2  0
 15 16  1  0
 16 17  2  0
 17 18  1  0
 18 19  2  0
 18 20  1  0
 20 21  2  0
 20 22  1  0
 22 23  1  0
 23 24  2  0
 24 25  1  0
 25 26  2  0
 26 27  1  0
 26 28  1  0
 28 29  2  0
 22 30  1  0
 30 31  2  0
 10 32  1  0
 32 33  2  0
 33 34  1  0
 34 35  1  0
 35 36  1  0
 33 37  1  0
 37 38  2  0
  5  3  1  0
 38  6  1  0
 38  9  1  0
 19 14  1  0
 29 23  1  0
 36 34  1  0
 30 17  1  0
M  END
>  <name>  (506) 
P118796

>  <alias>  (506) 
None

>  <smina_score_min>  (506) 
-9.832

>  <exports>  (506) 
['/opt/xchem-fragalysis-2/maxwin/BulkDock/OUTPUTS/openbind_xx01zvns2b_c2_elabs_1LOUTNY.sdf', '/opt/xchem-fragalysis-2/maxwin/BulkDock/OUTPUTS/openbind_xx01zvns2b_c2_elabs_1LSYIIV.sdf']

>  <tags>  (506) 
syndirella_placed,openbind_xx01zvns2b_c2_elabs,openbind_xx01zvns2b_c2_elabs_scored_6.2plus,syndirella_product,openbind_xx01zvns2b_c2_elabs_scored,openbind_xx01zvns2b_c2_elabs_scored_top80percent,BulkDock Fragalysis export

>  <subsites>  (506) 
1 - Z4590/B/203/1

>  <smiles>  (506) 
C[C@H](C1CC1)n1ncc2c(C(=O)Nc3ccc4c(c3)C(=O)N(c3ccc(F)cc3)C4=O)cc(C3CC3)nc21

>  <HIPPO Pose ID>  (506) 
118796

>  <energy_score>  (506) 
-16.682133

>  <inchikey>  (506) 
SFMVONKEPGIXNB-OAHLLOKOSA-N

>  <gnina_score_min>  (506) 
6.694

>  <gnina_score>  (506) 
6.739

>  <ref_mols>  (506) 
Z3468a

>  <HIPPO Compound ID>  (506) 
183050

>  <distance_score>  (506) 
0.887792

>  <rmsd(smina/fragmenstein)>  (506) 
0.602

>  <ref_pdb>  (506) 
Z3468a

>  <inspiration_score>  (506) 
None

$$$$
P118799
     RDKit          3D

 39 45  0  0  0  0  0  0  0  0999 V2000
   -5.2110    6.9205  -19.5584 C   0  0  0  0  0  0  0  0  0  0  0  0
   -4.1483    6.2035  -18.7243 C   0  0  2  0  0  0  0  0  0  0  0  0
   -3.5630    5.0368  -19.4636 C   0  0  0  0  0  0  0  0  0  0  0  0
   -2.2102    4.4968  -19.0694 C   0  0  0  0  0  0  0  0  0  0  0  0
   -2.3763    5.2205  -20.3764 C   0  0  0  0  0  0  0  0  0  0  0  0
   -4.6371    5.8237  -17.3994 N   0  0  0  0  0  0  0  0  0  0  0  0
   -3.9771    6.3010  -16.3067 N   0  0  0  0  0  0  0  0  0  0  0  0
   -4.8222    6.0546  -15.3046 C   0  0  0  0  0  0  0  0  0  0  0  0
   -5.9789    5.3769  -15.7298 C   0  0  0  0  0  0  0  0  0  0  0  0
   -7.1921    4.9646  -15.1832 C   0  0  0  0  0  0  0  0  0  0  0  0
   -7.5634    5.4863  -13.8755 C   0  0  0  0  0  0  0  0  0  0  0  0
   -7.5976    6.6473  -13.7636 O   0  0  0  0  0  0  0  0  0  0  0  0
   -7.8363    4.3750  -12.8442 N   0  0  0  0  0  0  0  0  0  0  0  0
   -8.1056    4.4529  -11.4869 C   0  0  0  0  0  0  0  0  0  0  0  0
   -8.1202    5.7437  -10.9071 C   0  0  0  0  0  0  0  0  0  0  0  0
   -8.3370    5.9288   -9.5559 C   0  0  0  0  0  0  0  0  0  0  0  0
   -8.5404    4.7899   -8.8250 C   0  0  0  0  0  0  0  0  0  0  0  0
   -8.5364    3.5159   -9.3653 C   0  0  0  0  0  0  0  0  0  0  0  0
   -8.3180    3.3062  -10.7141 C   0  0  0  0  0  0  0  0  0  0  0  0
   -8.7073    2.5942   -8.2427 C   0  0  0  0  0  0  0  0  0  0  0  0
   -8.7629    1.3901   -8.3669 O   0  0  0  0  0  0  0  0  0  0  0  0
   -8.7236    3.3728   -7.1106 N   0  0  0  0  0  0  0  0  0  0  0  0
   -8.5686    2.8842   -5.7656 C   0  0  1  0  0  0  0  0  0  0  0  0
   -7.3541    3.4876   -5.0453 C   0  0  0  0  0  0  0  0  0  0  0  0
   -7.5565    4.7056   -4.1697 C   0  0  0  0  0  0  0  0  0  0  0  0
   -8.7669    4.5667   -3.3147 C   0  0  0  0  0  0  0  0  0  0  0  0
   -8.9199    5.2142   -2.2818 O   0  0  0  0  0  0  0  0  0  0  0  0
   -9.7358    3.7235   -3.7751 N   0  0  0  0  0  0  0  0  0  0  0  0
   -9.8404    3.0565   -4.9762 C   0  0  0  0  0  0  0  0  0  0  0  0
  -10.9368    2.6708   -5.3698 O   0  0  0  0  0  0  0  0  0  0  0  0
   -8.7392    4.6930   -7.4010 C   0  0  0  0  0  0  0  0  0  0  0  0
   -8.8588    5.6536   -6.6651 O   0  0  0  0  0  0  0  0  0  0  0  0
   -8.1150    4.2995  -15.9770 C   0  0  0  0  0  0  0  0  0  0  0  0
   -7.8219    4.1078  -17.3260 C   0  0  0  0  0  0  0  0  0  0  0  0
   -8.8351    3.4096  -18.2025 C   0  0  0  0  0  0  0  0  0  0  0  0
  -10.2799    3.8586  -18.2503 C   0  0  0  0  0  0  0  0  0  0  0  0
   -9.3661    4.1444  -19.3973 C   0  0  0  0  0  0  0  0  0  0  0  0
   -6.6724    4.5538  -17.9104 N   0  0  0  0  0  0  0  0  0  0  0  0
   -5.8073    5.1729  -17.0842 C   0  0  0  0  0  0  0  0  0  0  0  0
  2  1  1  6
  2  3  1  0
  3  4  1  0
  4  5  1  0
  2  6  1  0
  6  7  1  0
  7  8  2  0
  8  9  1  0
  9 10  2  0
 10 11  1  0
 11 12  2  0
 11 13  1  0
 13 14  1  0
 14 15  2  0
 15 16  1  0
 16 17  2  0
 17 18  1  0
 18 19  2  0
 18 20  1  0
 20 21  2  0
 20 22  1  0
 23 22  1  6
 23 24  1  0
 24 25  1  0
 25 26  1  0
 26 27  2  0
 26 28  1  0
 28 29  1  0
 29 30  2  0
 22 31  1  0
 31 32  2  0
 10 33  1  0
 33 34  2  0
 34 35  1  0
 35 36  1  0
 36 37  1  0
 34 38  1  0
 38 39  2  0
  5  3  1  0
 39  6  1  0
 39  9  1  0
 19 14  1  0
 29 23  1  0
 37 35  1  0
 31 17  1  0
M  END
>  <name>  (507) 
P118799

>  <alias>  (507) 
None

>  <smina_score_min>  (507) 
-9.207

>  <exports>  (507) 
['/opt/xchem-fragalysis-2/maxwin/BulkDock/OUTPUTS/openbind_xx01zvns2b_c2_elabs_1LOUTNY.sdf', '/opt/xchem-fragalysis-2/maxwin/BulkDock/OUTPUTS/openbind_xx01zvns2b_c2_elabs_1LSYIIV.sdf']

>  <tags>  (507) 
syndirella_placed,openbind_xx01zvns2b_c2_elabs,openbind_xx01zvns2b_c2_elabs_scored_6.2plus,syndirella_product,openbind_xx01zvns2b_c2_elabs_scored,openbind_xx01zvns2b_c2_elabs_scored_top80percent,BulkDock Fragalysis export

>  <subsites>  (507) 
1 - Z4590/B/203/1

>  <smiles>  (507) 
C[C@H](C1CC1)n1ncc2c(C(=O)Nc3ccc4c(c3)C(=O)N([C@H]3CCC(=O)NC3=O)C4=O)cc(C3CC3)nc21

>  <HIPPO Pose ID>  (507) 
118799

>  <energy_score>  (507) 
-53.403825

>  <inchikey>  (507) 
HYLRLWRNOGZWFA-DMZKTXOQSA-N

>  <gnina_score_min>  (507) 
6.755

>  <gnina_score>  (507) 
6.688

>  <ref_mols>  (507) 
Z3468a

>  <HIPPO Compound ID>  (507) 
183053

>  <distance_score>  (507) 
0.866425

>  <rmsd(smina/fragmenstein)>  (507) 
0.734

>  <ref_pdb>  (507) 
Z3468a

>  <inspiration_score>  (507) 
None

$$$$
P118802
     RDKit          3D

 39 45  0  0  0  0  0  0  0  0999 V2000
   -4.7683    7.0337  -19.4827 C   0  0  0  0  0  0  0  0  0  0  0  0
   -4.1340    5.7802  -18.8752 C   0  0  1  0  0  0  0  0  0  0  0  0
   -2.6433    5.8106  -19.0409 C   0  0  0  0  0  0  0  0  0  0  0  0
   -1.8240    4.5606  -18.8922 C   0  0  0  0  0  0  0  0  0  0  0  0
   -2.0112    5.1784  -20.2525 C   0  0  0  0  0  0  0  0  0  0  0  0
   -4.5454    5.6188  -17.4820 N   0  0  0  0  0  0  0  0  0  0  0  0
   -3.7972    6.0454  -16.4327 N   0  0  0  0  0  0  0  0  0  0  0  0
   -4.6116    5.8532  -15.3868 C   0  0  0  0  0  0  0  0  0  0  0  0
   -5.8703    5.3274  -15.7581 C   0  0  0  0  0  0  0  0  0  0  0  0
   -7.1028    5.0169  -15.1659 C   0  0  0  0  0  0  0  0  0  0  0  0
   -7.2208    5.3936  -13.7500 C   0  0  0  0  0  0  0  0  0  0  0  0
   -6.9089    6.4927  -13.5036 O   0  0  0  0  0  0  0  0  0  0  0  0
   -7.6410    4.2380  -12.8142 N   0  0  0  0  0  0  0  0  0  0  0  0
   -7.6727    4.1662  -11.4236 C   0  0  0  0  0  0  0  0  0  0  0  0
   -6.8630    5.1057  -10.7476 C   0  0  0  0  0  0  0  0  0  0  0  0
   -6.6982    5.0683   -9.3753 C   0  0  0  0  0  0  0  0  0  0  0  0
   -7.4166    4.1164   -8.7011 C   0  0  0  0  0  0  0  0  0  0  0  0
   -8.3150    3.2468   -9.3165 C   0  0  0  0  0  0  0  0  0  0  0  0
   -8.3950    3.2022  -10.7070 C   0  0  0  0  0  0  0  0  0  0  0  0
   -9.1112    2.5665   -8.2445 C   0  0  0  0  0  0  0  0  0  0  0  0
   -8.6843    3.2785   -7.0233 N   0  0  0  0  0  0  0  0  0  0  0  0
   -9.6273    3.8256   -6.0554 C   0  0  1  0  0  0  0  0  0  0  0  0
   -9.6619    3.1048   -4.7416 C   0  0  0  0  0  0  0  0  0  0  0  0
   -8.4602    3.4493   -3.8993 C   0  0  0  0  0  0  0  0  0  0  0  0
   -8.3174    4.9292   -3.6727 C   0  0  0  0  0  0  0  0  0  0  0  0
   -7.8320    5.3448   -2.6178 O   0  0  0  0  0  0  0  0  0  0  0  0
   -8.7446    5.7604   -4.6968 N   0  0  0  0  0  0  0  0  0  0  0  0
   -8.5157    7.1844   -4.5420 C   0  0  0  0  0  0  0  0  0  0  0  0
   -9.4506    5.3493   -5.8300 C   0  0  0  0  0  0  0  0  0  0  0  0
   -9.8793    6.1625   -6.6495 O   0  0  0  0  0  0  0  0  0  0  0  0
   -7.5314    4.0096   -7.2563 C   0  0  0  0  0  0  0  0  0  0  0  0
   -6.8268    4.6048   -6.4587 O   0  0  0  0  0  0  0  0  0  0  0  0
   -8.1370    4.5470  -15.9847 C   0  0  0  0  0  0  0  0  0  0  0  0
   -7.9114    4.4240  -17.3684 C   0  0  0  0  0  0  0  0  0  0  0  0
   -8.9418    4.0073  -18.3849 C   0  0  0  0  0  0  0  0  0  0  0  0
  -10.3863    3.7340  -18.1203 C   0  0  0  0  0  0  0  0  0  0  0  0
   -9.4372    2.5903  -18.3386 C   0  0  0  0  0  0  0  0  0  0  0  0
   -6.7250    4.7182  -17.9401 N   0  0  0  0  0  0  0  0  0  0  0  0
   -5.7771    5.1606  -17.1152 C   0  0  0  0  0  0  0  0  0  0  0  0
  2  1  1  1
  2  3  1  0
  3  4  1  0
  4  5  1  0
  2  6  1  0
  6  7  1  0
  7  8  2  0
  8  9  1  0
  9 10  2  0
 10 11  1  0
 11 12  2  0
 11 13  1  0
 13 14  1  0
 14 15  2  0
 15 16  1  0
 16 17  2  0
 17 18  1  0
 18 19  2  0
 18 20  1  0
 20 21  1  0
 22 21  1  6
 22 23  1  0
 23 24  1  0
 24 25  1  0
 25 26  2  0
 25 27  1  0
 27 28  1  0
 27 29  1  0
 29 30  2  0
 21 31  1  0
 31 32  2  0
 10 33  1  0
 33 34  2  0
 34 35  1  0
 35 36  1  0
 36 37  1  0
 34 38  1  0
 38 39  2  0
  5  3  1  0
 39  6  1  0
 39  9  1  0
 19 14  1  0
 29 22  1  0
 37 35  1  0
 31 17  1  0
M  END
>  <name>  (508) 
P118802

>  <alias>  (508) 
None

>  <smina_score_min>  (508) 
-9.058

>  <exports>  (508) 
['/opt/xchem-fragalysis-2/maxwin/BulkDock/OUTPUTS/openbind_xx01zvns2b_c2_elabs_1LOUTNY.sdf', '/opt/xchem-fragalysis-2/maxwin/BulkDock/OUTPUTS/openbind_xx01zvns2b_c2_elabs_1LSYIIV.sdf']

>  <tags>  (508) 
syndirella_placed,openbind_xx01zvns2b_c2_elabs,openbind_xx01zvns2b_c2_elabs_scored_6.2plus,syndirella_product,openbind_xx01zvns2b_c2_elabs_scored,openbind_xx01zvns2b_c2_elabs_scored_top80percent,BulkDock Fragalysis export

>  <subsites>  (508) 
1 - Z4590/B/203/1

>  <smiles>  (508) 
C[C@@H](C1CC1)n1ncc2c(C(=O)Nc3ccc4c(c3)CN([C@H]3CCC(=O)N(C)C3=O)C4=O)cc(C3CC3)nc21

>  <HIPPO Pose ID>  (508) 
118802

>  <energy_score>  (508) 
-6.384898

>  <inchikey>  (508) 
MHMADFMSVGBOLP-OWJWWREXSA-N

>  <gnina_score_min>  (508) 
6.84

>  <gnina_score>  (508) 
6.684

>  <ref_mols>  (508) 
Z3468a

>  <HIPPO Compound ID>  (508) 
183054

>  <distance_score>  (508) 
0.837799

>  <rmsd(smina/fragmenstein)>  (508) 
0.574

>  <ref_pdb>  (508) 
Z3468a

>  <inspiration_score>  (508) 
None

$$$$
P118803
     RDKit          3D

 39 45  0  0  0  0  0  0  0  0999 V2000
   -4.8771    7.1097  -19.2869 C   0  0  0  0  0  0  0  0  0  0  0  0
   -3.9053    6.2470  -18.4754 C   0  0  2  0  0  0  0  0  0  0  0  0
   -3.4238    5.0737  -19.2796 C   0  0  0  0  0  0  0  0  0  0  0  0
   -2.0973    4.4373  -18.9542 C   0  0  0  0  0  0  0  0  0  0  0  0
   -2.2624    5.2157  -20.2302 C   0  0  0  0  0  0  0  0  0  0  0  0
   -4.4667    5.8286  -17.1904 N   0  0  0  0  0  0  0  0  0  0  0  0
   -3.8472    6.1991  -16.0367 N   0  0  0  0  0  0  0  0  0  0  0  0
   -4.7525    5.9086  -15.0965 C   0  0  0  0  0  0  0  0  0  0  0  0
   -5.9157    5.3139  -15.6240 C   0  0  0  0  0  0  0  0  0  0  0  0
   -7.1841    4.9276  -15.1818 C   0  0  0  0  0  0  0  0  0  0  0  0
   -7.6384    5.4493  -13.8956 C   0  0  0  0  0  0  0  0  0  0  0  0
   -7.6870    6.6158  -13.8284 O   0  0  0  0  0  0  0  0  0  0  0  0
   -7.8803    4.3713  -12.8124 N   0  0  0  0  0  0  0  0  0  0  0  0
   -8.1304    4.5004  -11.4453 C   0  0  0  0  0  0  0  0  0  0  0  0
   -8.1606    5.8225  -10.9514 C   0  0  0  0  0  0  0  0  0  0  0  0
   -8.2630    6.1002   -9.6042 C   0  0  0  0  0  0  0  0  0  0  0  0
   -8.3622    5.0279   -8.7577 C   0  0  0  0  0  0  0  0  0  0  0  0
   -8.4057    3.7113   -9.2189 C   0  0  0  0  0  0  0  0  0  0  0  0
   -8.2771    3.4116  -10.5723 C   0  0  0  0  0  0  0  0  0  0  0  0
   -8.5283    2.8587   -8.0122 C   0  0  0  0  0  0  0  0  0  0  0  0
   -8.7177    1.6617   -8.0277 O   0  0  0  0  0  0  0  0  0  0  0  0
   -8.3996    3.7106   -6.9110 N   0  0  0  0  0  0  0  0  0  0  0  0
   -8.2360    3.3312   -5.5094 C   0  0  2  0  0  0  0  0  0  0  0  0
   -9.5521    3.4476   -4.7547 C   0  0  0  0  0  0  0  0  0  0  0  0
   -9.3189    3.8654   -3.3131 C   0  0  0  0  0  0  0  0  0  0  0  0
   -8.5891    5.1738   -3.2313 C   0  0  0  0  0  0  0  0  0  0  0  0
   -8.8483    5.9972   -2.3557 O   0  0  0  0  0  0  0  0  0  0  0  0
   -7.5562    5.3089   -4.1324 N   0  0  0  0  0  0  0  0  0  0  0  0
   -6.6163    6.3868   -3.8914 C   0  0  0  0  0  0  0  0  0  0  0  0
   -7.1227    4.2078   -4.8536 C   0  0  0  0  0  0  0  0  0  0  0  0
   -5.9160    4.0191   -5.0249 O   0  0  0  0  0  0  0  0  0  0  0  0
   -8.3895    5.0935   -7.2881 C   0  0  0  0  0  0  0  0  0  0  0  0
   -8.0994    4.4278  -16.1045 C   0  0  0  0  0  0  0  0  0  0  0  0
   -7.7378    4.3555  -17.4553 C   0  0  0  0  0  0  0  0  0  0  0  0
   -8.6897    3.8907  -18.5309 C   0  0  0  0  0  0  0  0  0  0  0  0
   -9.3386    2.5425  -18.3922 C   0  0  0  0  0  0  0  0  0  0  0  0
  -10.1814    3.7855  -18.3620 C   0  0  0  0  0  0  0  0  0  0  0  0
   -6.5225    4.7530  -17.9081 N   0  0  0  0  0  0  0  0  0  0  0  0
   -5.6798    5.2253  -16.9793 C   0  0  0  0  0  0  0  0  0  0  0  0
  2  1  1  6
  2  3  1  0
  3  4  1  0
  4  5  1  0
  2  6  1  0
  6  7  1  0
  7  8  2  0
  8  9  1  0
  9 10  2  0
 10 11  1  0
 11 12  2  0
 11 13  1  0
 13 14  1  0
 14 15  2  0
 15 16  1  0
 16 17  2  0
 17 18  1  0
 18 19  2  0
 18 20  1  0
 20 21  2  0
 20 22  1  0
 23 22  1  6
 23 24  1  0
 24 25  1  0
 25 26  1  0
 26 27  2  0
 26 28  1  0
 28 29  1  0
 28 30  1  0
 30 31  2  0
 22 32  1  0
 10 33  1  0
 33 34  2  0
 34 35  1  0
 35 36  1  0
 36 37  1  0
 34 38  1  0
 38 39  2  0
  5  3  1  0
 39  6  1  0
 39  9  1  0
 19 14  1  0
 30 23  1  0
 37 35  1  0
 32 17  1  0
M  END
>  <name>  (509) 
P118803

>  <alias>  (509) 
None

>  <smina_score_min>  (509) 
-9.478

>  <exports>  (509) 
['/opt/xchem-fragalysis-2/maxwin/BulkDock/OUTPUTS/openbind_xx01zvns2b_c2_elabs_1LOUTNY.sdf', '/opt/xchem-fragalysis-2/maxwin/BulkDock/OUTPUTS/openbind_xx01zvns2b_c2_elabs_1LSYIIV.sdf']

>  <tags>  (509) 
syndirella_placed,openbind_xx01zvns2b_c2_elabs,openbind_xx01zvns2b_c2_elabs_scored_6.2plus,syndirella_product,openbind_xx01zvns2b_c2_elabs_scored,openbind_xx01zvns2b_c2_elabs_scored_top80percent,BulkDock Fragalysis export

>  <subsites>  (509) 
1 - Z4590/B/203/1

>  <smiles>  (509) 
C[C@H](C1CC1)n1ncc2c(C(=O)Nc3ccc4c(c3)C(=O)N([C@@H]3CCC(=O)N(C)C3=O)C4)cc(C3CC3)nc21

>  <HIPPO Pose ID>  (509) 
118803

>  <energy_score>  (509) 
-40.381456

>  <inchikey>  (509) 
SYBMRKFNSYZITP-OYLFLEFRSA-N

>  <gnina_score_min>  (509) 
6.699

>  <gnina_score>  (509) 
6.721

>  <ref_mols>  (509) 
Z3468a

>  <HIPPO Compound ID>  (509) 
183055

>  <distance_score>  (509) 
0.912591

>  <rmsd(smina/fragmenstein)>  (509) 
0.79

>  <ref_pdb>  (509) 
Z3468a

>  <inspiration_score>  (509) 
None

$$$$
P119178
     RDKit          3D

 28 31  0  0  0  0  0  0  0  0999 V2000
   -4.3480    5.2552  -16.1089 C   0  0  0  0  0  0  0  0  0  0  0  0
   -5.3130    5.7131  -17.1956 C   0  0  0  0  0  0  0  0  0  0  0  0
   -5.3094    7.2468  -17.2839 C   0  0  0  0  0  0  0  0  0  0  0  0
   -4.8405    5.2252  -18.5931 C   0  0  0  0  0  0  0  0  0  0  0  0
   -3.7133    5.2913  -19.0608 O   0  0  0  0  0  0  0  0  0  0  0  0
   -5.9532    4.7375  -19.2563 N   0  0  0  0  0  0  0  0  0  0  0  0
   -7.0327    4.6148  -18.3964 C   0  0  0  0  0  0  0  0  0  0  0  0
   -8.2520    4.0418  -18.7100 C   0  0  0  0  0  0  0  0  0  0  0  0
   -9.2069    3.9499  -17.7073 C   0  0  0  0  0  0  0  0  0  0  0  0
   -8.9135    4.4247  -16.4238 C   0  0  0  0  0  0  0  0  0  0  0  0
   -7.6659    5.0205  -16.1252 C   0  0  0  0  0  0  0  0  0  0  0  0
   -7.4929    5.6332  -14.7804 C   0  0  0  0  0  0  0  0  0  0  0  0
   -7.0383    6.7015  -14.6964 O   0  0  0  0  0  0  0  0  0  0  0  0
   -8.0387    4.6942  -13.6928 N   0  0  0  0  0  0  0  0  0  0  0  0
   -8.2207    4.8991  -12.3381 C   0  0  0  0  0  0  0  0  0  0  0  0
   -8.1441    6.1616  -11.7534 C   0  0  0  0  0  0  0  0  0  0  0  0
   -8.1814    6.2871  -10.3640 C   0  0  0  0  0  0  0  0  0  0  0  0
   -8.1839    5.1436   -9.5698 C   0  0  0  0  0  0  0  0  0  0  0  0
   -8.1963    3.8780  -10.1723 C   0  0  0  0  0  0  0  0  0  0  0  0
   -7.7327    2.6569   -9.4208 C   0  0  0  0  0  0  0  0  0  0  0  0
   -6.3122    2.3927   -9.6957 N   0  0  0  0  0  0  0  0  0  0  0  0
   -5.3253    3.3848   -9.2706 C   0  0  0  0  0  0  0  0  0  0  0  0
   -4.6998    4.2618  -10.3598 C   0  0  0  0  0  0  0  0  0  0  0  0
   -3.8093    3.2537  -11.5798 S   0  0  0  0  0  0  0  0  0  0  0  0
   -5.2095    2.1828  -12.0100 C   0  0  0  0  0  0  0  0  0  0  0  0
   -5.9243    1.5402  -10.8095 C   0  0  0  0  0  0  0  0  0  0  0  0
   -8.3534    3.7670  -11.5524 C   0  0  0  0  0  0  0  0  0  0  0  0
   -6.7137    5.1245  -17.1324 C   0  0  0  0  0  0  0  0  0  0  0  0
  1  2  1  0
  2  3  1  0
  2  4  1  0
  4  5  2  0
  4  6  1  0
  6  7  1  0
  7  8  2  0
  8  9  1  0
  9 10  2  0
 10 11  1  0
 11 12  1  0
 12 13  2  0
 12 14  1  0
 14 15  1  0
 15 16  2  0
 16 17  1  0
 17 18  2  0
 18 19  1  0
 19 20  1  0
 20 21  1  0
 21 22  1  0
 22 23  1  0
 23 24  1  0
 24 25  1  0
 25 26  1  0
 19 27  2  0
 11 28  2  0
 28  2  1  0
 28  7  1  0
 27 15  1  0
 26 21  1  0
M  END
>  <name>  (510) 
P119178

>  <alias>  (510) 
None

>  <smina_score_min>  (510) 
-8.053

>  <exports>  (510) 
['/opt/xchem-fragalysis-2/maxwin/BulkDock/OUTPUTS/openbind_xx01zvns2b_c2_elabs_1LOUTNY.sdf', '/opt/xchem-fragalysis-2/maxwin/BulkDock/OUTPUTS/openbind_xx01zvns2b_c2_elabs_1LSYIIV.sdf']

>  <tags>  (510) 
syndirella_placed,openbind_xx01zvns2b_c2_elabs,openbind_xx01zvns2b_c2_elabs_scored_6.2plus,syndirella_product,openbind_xx01zvns2b_c2_elabs_scored,openbind_xx01zvns2b_c1_elabs_filtered,openbind_xx01zvns2b_c2_elabs_scored_top80percent,BulkDock Fragalysis export

>  <subsites>  (510) 
1 - Z4590/B/203/1

>  <smiles>  (510) 
CC1(C)C(=O)Nc2cccc(C(=O)Nc3cccc(CN4CCSCC4)c3)c21

>  <HIPPO Pose ID>  (510) 
119178

>  <energy_score>  (510) 
-40.084196

>  <inchikey>  (510) 
GRAJWSYCBLNKIR-UHFFFAOYSA-N

>  <gnina_score_min>  (510) 
6.206

>  <gnina_score>  (510) 
6.185

>  <ref_mols>  (510) 
Z3746a

>  <HIPPO Compound ID>  (510) 
183609

>  <distance_score>  (510) 
0.892824

>  <rmsd(smina/fragmenstein)>  (510) 
1.03

>  <ref_pdb>  (510) 
Z3746a

>  <inspiration_score>  (510) 
None

$$$$
P119183
     RDKit          3D

 28 31  0  0  0  0  0  0  0  0999 V2000
   -4.2426    5.2053  -16.0106 C   0  0  0  0  0  0  0  0  0  0  0  0
   -5.2616    5.6763  -17.0401 C   0  0  0  0  0  0  0  0  0  0  0  0
   -5.2753    7.2124  -17.0883 C   0  0  0  0  0  0  0  0  0  0  0  0
   -4.8516    5.2320  -18.4724 C   0  0  0  0  0  0  0  0  0  0  0  0
   -3.7416    5.2973  -18.9795 O   0  0  0  0  0  0  0  0  0  0  0  0
   -6.0002    4.7916  -19.1084 N   0  0  0  0  0  0  0  0  0  0  0  0
   -7.0428    4.6436  -18.2066 C   0  0  0  0  0  0  0  0  0  0  0  0
   -8.2862    4.1130  -18.4932 C   0  0  0  0  0  0  0  0  0  0  0  0
   -9.1905    3.9833  -17.4465 C   0  0  0  0  0  0  0  0  0  0  0  0
   -8.8245    4.3691  -16.1478 C   0  0  0  0  0  0  0  0  0  0  0  0
   -7.5534    4.9207  -15.8755 C   0  0  0  0  0  0  0  0  0  0  0  0
   -7.3248    5.4833  -14.5161 C   0  0  0  0  0  0  0  0  0  0  0  0
   -6.9124    6.5743  -14.4446 O   0  0  0  0  0  0  0  0  0  0  0  0
   -7.7890    4.5091  -13.4017 N   0  0  0  0  0  0  0  0  0  0  0  0
   -7.9257    4.7042  -12.0278 C   0  0  0  0  0  0  0  0  0  0  0  0
   -7.7588    5.9772  -11.4881 C   0  0  0  0  0  0  0  0  0  0  0  0
   -8.0046    6.2004  -10.1393 C   0  0  0  0  0  0  0  0  0  0  0  0
   -8.3964    5.1458   -9.3170 C   0  0  0  0  0  0  0  0  0  0  0  0
   -8.5147    3.8369   -9.8115 C   0  0  0  0  0  0  0  0  0  0  0  0
   -8.8701    2.6272   -8.9500 C   0  0  0  0  0  0  0  0  0  0  0  0
   -9.0526    2.8813   -7.5170 N   0  0  0  0  0  0  0  0  0  0  0  0
   -8.1800    3.5043   -6.6576 C   0  0  0  0  0  0  0  0  0  0  0  0
   -8.8059    3.5510   -5.4456 C   0  0  0  0  0  0  0  0  0  0  0  0
   -8.1870    4.3087   -3.8584 Br  0  0  0  0  0  0  0  0  0  0  0  0
  -10.0303    2.9073   -5.6318 C   0  0  0  0  0  0  0  0  0  0  0  0
  -10.2012    2.5062   -6.8954 N   0  0  0  0  0  0  0  0  0  0  0  0
   -8.2945    3.6386  -11.1935 C   0  0  0  0  0  0  0  0  0  0  0  0
   -6.6572    5.0797  -16.9304 C   0  0  0  0  0  0  0  0  0  0  0  0
  1  2  1  0
  2  3  1  0
  2  4  1  0
  4  5  2  0
  4  6  1  0
  6  7  1  0
  7  8  2  0
  8  9  1  0
  9 10  2  0
 10 11  1  0
 11 12  1  0
 12 13  2  0
 12 14  1  0
 14 15  1  0
 15 16  2  0
 16 17  1  0
 17 18  2  0
 18 19  1  0
 19 20  1  0
 20 21  1  0
 21 22  1  0
 22 23  2  0
 23 24  1  0
 23 25  1  0
 25 26  2  0
 19 27  2  0
 11 28  2  0
 28  2  1  0
 28  7  1  0
 27 15  1  0
 26 21  1  0
M  END
>  <name>  (511) 
P119183

>  <alias>  (511) 
None

>  <smina_score_min>  (511) 
-9.614

>  <exports>  (511) 
['/opt/xchem-fragalysis-2/maxwin/BulkDock/OUTPUTS/openbind_xx01zvns2b_c2_elabs_1LOUTNY.sdf', '/opt/xchem-fragalysis-2/maxwin/BulkDock/OUTPUTS/openbind_xx01zvns2b_c2_elabs_1LSYIIV.sdf']

>  <tags>  (511) 
syndirella_placed,openbind_xx01zvns2b_c2_elabs,openbind_xx01zvns2b_c2_elabs_scored_6.2plus,syndirella_product,openbind_xx01zvns2b_c2_elabs_scored,openbind_xx01zvns2b_c1_elabs_filtered,openbind_xx01zvns2b_c2_elabs_scored_top80percent,BulkDock Fragalysis export

>  <subsites>  (511) 
1 - Z4590/B/203/1

>  <smiles>  (511) 
CC1(C)C(=O)Nc2cccc(C(=O)Nc3cccc(Cn4cc(Br)cn4)c3)c21

>  <HIPPO Pose ID>  (511) 
119183

>  <energy_score>  (511) 
-25.943638

>  <inchikey>  (511) 
KSJOGPVFKZEVQF-UHFFFAOYSA-N

>  <gnina_score_min>  (511) 
6.233

>  <gnina_score>  (511) 
5.835

>  <ref_mols>  (511) 
Z3746a

>  <HIPPO Compound ID>  (511) 
183618

>  <distance_score>  (511) 
0.590998

>  <rmsd(smina/fragmenstein)>  (511) 
0.664

>  <ref_pdb>  (511) 
Z3746a

>  <inspiration_score>  (511) 
None

$$$$
P119209
     RDKit          3D

 28 31  0  0  0  0  0  0  0  0999 V2000
   -4.3360    5.2381  -16.0359 C   0  0  0  0  0  0  0  0  0  0  0  0
   -5.3026    5.7097  -17.1145 C   0  0  0  0  0  0  0  0  0  0  0  0
   -5.3044    7.2439  -17.1697 C   0  0  0  0  0  0  0  0  0  0  0  0
   -4.8362    5.2461  -18.5230 C   0  0  0  0  0  0  0  0  0  0  0  0
   -3.7105    5.3188  -18.9930 O   0  0  0  0  0  0  0  0  0  0  0  0
   -5.9529    4.7717  -19.1904 N   0  0  0  0  0  0  0  0  0  0  0  0
   -7.0286    4.6350  -18.3274 C   0  0  0  0  0  0  0  0  0  0  0  0
   -8.2508    4.0710  -18.6450 C   0  0  0  0  0  0  0  0  0  0  0  0
   -9.1985    3.9597  -17.6365 C   0  0  0  0  0  0  0  0  0  0  0  0
   -8.8947    4.4043  -16.3438 C   0  0  0  0  0  0  0  0  0  0  0  0
   -7.6443    4.9906  -16.0426 C   0  0  0  0  0  0  0  0  0  0  0  0
   -7.4770    5.5772  -14.6875 C   0  0  0  0  0  0  0  0  0  0  0  0
   -7.1583    6.6934  -14.5910 O   0  0  0  0  0  0  0  0  0  0  0  0
   -7.8753    4.5558  -13.6062 N   0  0  0  0  0  0  0  0  0  0  0  0
   -8.0500    4.7126  -12.2405 C   0  0  0  0  0  0  0  0  0  0  0  0
   -8.0218    5.9600  -11.6201 C   0  0  0  0  0  0  0  0  0  0  0  0
   -8.1291    6.0522  -10.2304 C   0  0  0  0  0  0  0  0  0  0  0  0
   -8.1784    4.8936   -9.4576 C   0  0  0  0  0  0  0  0  0  0  0  0
   -8.1482    3.6402  -10.0833 C   0  0  0  0  0  0  0  0  0  0  0  0
   -7.7673    2.3945   -9.3164 C   0  0  0  0  0  0  0  0  0  0  0  0
   -6.3685    2.0637   -9.6533 N   0  0  0  0  0  0  0  0  0  0  0  0
   -5.2942    2.9348   -9.6413 C   0  0  0  0  0  0  0  0  0  0  0  0
   -4.2266    2.2513  -10.1612 C   0  0  0  0  0  0  0  0  0  0  0  0
   -2.6463    2.8003  -10.4012 Cl  0  0  0  0  0  0  0  0  0  0  0  0
   -4.7258    0.9779  -10.4629 C   0  0  0  0  0  0  0  0  0  0  0  0
   -6.0163    0.8491  -10.1464 N   0  0  0  0  0  0  0  0  0  0  0  0
   -8.1852    3.5594  -11.4809 C   0  0  0  0  0  0  0  0  0  0  0  0
   -6.7012    5.1188  -17.0546 C   0  0  0  0  0  0  0  0  0  0  0  0
  1  2  1  0
  2  3  1  0
  2  4  1  0
  4  5  2  0
  4  6  1  0
  6  7  1  0
  7  8  2  0
  8  9  1  0
  9 10  2  0
 10 11  1  0
 11 12  1  0
 12 13  2  0
 12 14  1  0
 14 15  1  0
 15 16  2  0
 16 17  1  0
 17 18  2  0
 18 19  1  0
 19 20  1  0
 20 21  1  0
 21 22  1  0
 22 23  2  0
 23 24  1  0
 23 25  1  0
 25 26  2  0
 19 27  2  0
 11 28  2  0
 28  2  1  0
 28  7  1  0
 27 15  1  0
 26 21  1  0
M  END
>  <name>  (512) 
P119209

>  <alias>  (512) 
None

>  <smina_score_min>  (512) 
-7.937

>  <exports>  (512) 
['/opt/xchem-fragalysis-2/maxwin/BulkDock/OUTPUTS/openbind_xx01zvns2b_c2_elabs_1LOUTNY.sdf', '/opt/xchem-fragalysis-2/maxwin/BulkDock/OUTPUTS/openbind_xx01zvns2b_c2_elabs_1LSYIIV.sdf']

>  <tags>  (512) 
syndirella_placed,openbind_xx01zvns2b_c2_elabs,openbind_xx01zvns2b_c2_elabs_scored_6.2plus,syndirella_product,openbind_xx01zvns2b_c2_elabs_scored,openbind_xx01zvns2b_c1_elabs_filtered,openbind_xx01zvns2b_c2_elabs_scored_top80percent,BulkDock Fragalysis export

>  <subsites>  (512) 
1 - Z4590/B/203/1

>  <smiles>  (512) 
CC1(C)C(=O)Nc2cccc(C(=O)Nc3cccc(Cn4cc(Cl)cn4)c3)c21

>  <HIPPO Pose ID>  (512) 
119209

>  <energy_score>  (512) 
-29.678132

>  <inchikey>  (512) 
KDUPWLASDNINQQ-UHFFFAOYSA-N

>  <gnina_score_min>  (512) 
6.324

>  <gnina_score>  (512) 
6.312

>  <ref_mols>  (512) 
Z3746a

>  <HIPPO Compound ID>  (512) 
183653

>  <distance_score>  (512) 
0.832746

>  <rmsd(smina/fragmenstein)>  (512) 
0.739

>  <ref_pdb>  (512) 
Z3746a

>  <inspiration_score>  (512) 
None

$$$$
P119243
     RDKit          3D

 29 32  0  0  0  0  0  0  0  0999 V2000
   -3.1608    3.1321   -9.9411 C   0  0  0  0  0  0  0  0  0  0  0  0
   -4.1606    2.0626   -9.9865 N   0  0  0  0  0  0  0  0  0  0  0  0
   -3.9158    1.1961  -11.1411 C   0  0  0  0  0  0  0  0  0  0  0  0
   -5.5205    2.6729  -10.0445 C   0  0  0  0  0  0  0  0  0  0  0  0
   -6.6931    1.6555   -9.9881 C   0  0  0  0  0  0  0  0  0  0  0  0
   -8.0977    2.1267  -10.0364 N   0  0  0  0  0  0  0  0  0  0  0  0
   -8.4242    3.1483   -9.0233 C   0  0  0  0  0  0  0  0  0  0  0  0
   -8.2627    4.4472   -9.7510 C   0  0  0  0  0  0  0  0  0  0  0  0
   -8.0942    5.7171   -9.2428 C   0  0  0  0  0  0  0  0  0  0  0  0
   -7.8259    6.7431  -10.1482 C   0  0  0  0  0  0  0  0  0  0  0  0
   -7.7221    6.4841  -11.5294 C   0  0  0  0  0  0  0  0  0  0  0  0
   -7.9167    5.1985  -12.0328 C   0  0  0  0  0  0  0  0  0  0  0  0
   -7.7871    4.9042  -13.3857 N   0  0  0  0  0  0  0  0  0  0  0  0
   -7.2721    5.7697  -14.5550 C   0  0  0  0  0  0  0  0  0  0  0  0
   -6.8040    6.8375  -14.5557 O   0  0  0  0  0  0  0  0  0  0  0  0
   -7.5289    5.1096  -15.8720 C   0  0  0  0  0  0  0  0  0  0  0  0
   -8.7993    4.5326  -16.0958 C   0  0  0  0  0  0  0  0  0  0  0  0
   -9.1767    4.0604  -17.3639 C   0  0  0  0  0  0  0  0  0  0  0  0
   -8.2871    4.1306  -18.4290 C   0  0  0  0  0  0  0  0  0  0  0  0
   -7.0402    4.6739  -18.1869 C   0  0  0  0  0  0  0  0  0  0  0  0
   -6.6408    5.1852  -16.9429 C   0  0  0  0  0  0  0  0  0  0  0  0
   -5.2364    5.7494  -17.0958 C   0  0  0  0  0  0  0  0  0  0  0  0
   -5.2144    7.2819  -17.2125 C   0  0  0  0  0  0  0  0  0  0  0  0
   -4.2236    5.2851  -16.0561 C   0  0  0  0  0  0  0  0  0  0  0  0
   -4.8490    5.2327  -18.5089 C   0  0  0  0  0  0  0  0  0  0  0  0
   -3.7448    5.2649  -19.0318 O   0  0  0  0  0  0  0  0  0  0  0  0
   -6.0072    4.7667  -19.1064 N   0  0  0  0  0  0  0  0  0  0  0  0
   -8.2100    4.1988  -11.1284 C   0  0  0  0  0  0  0  0  0  0  0  0
   -8.4011    2.7390  -11.3409 C   0  0  0  0  0  0  0  0  0  0  0  0
  1  2  1  0
  2  3  1  0
  2  4  1  0
  4  5  1  0
  5  6  1  0
  6  7  1  0
  7  8  1  0
  8  9  2  0
  9 10  1  0
 10 11  2  0
 11 12  1  0
 12 13  1  0
 13 14  1  0
 14 15  2  0
 14 16  1  0
 16 17  2  0
 17 18  1  0
 18 19  2  0
 19 20  1  0
 20 21  2  0
 21 22  1  0
 22 23  1  0
 22 24  1  0
 22 25  1  0
 25 26  2  0
 25 27  1  0
 12 28  2  0
 28 29  1  0
 29  6  1  0
 28  8  1  0
 21 16  1  0
 27 20  1  0
M  END
>  <name>  (513) 
P119243

>  <alias>  (513) 
None

>  <smina_score_min>  (513) 
-8.156

>  <exports>  (513) 
['/opt/xchem-fragalysis-2/maxwin/BulkDock/OUTPUTS/openbind_xx01zvns2b_c2_elabs_1LOUTNY.sdf', '/opt/xchem-fragalysis-2/maxwin/BulkDock/OUTPUTS/openbind_xx01zvns2b_c2_elabs_1LSYIIV.sdf']

>  <tags>  (513) 
syndirella_placed,openbind_xx01zvns2b_c2_elabs,openbind_xx01zvns2b_c2_elabs_scored_6.2plus,syndirella_product,openbind_xx01zvns2b_c2_elabs_scored,openbind_xx01zvns2b_c1_elabs_filtered,openbind_xx01zvns2b_c2_elabs_scored_top80percent,BulkDock Fragalysis export

>  <subsites>  (513) 
1 - Z4590/B/203/1

>  <smiles>  (513) 
CN(C)CCN1Cc2cccc(NC(=O)c3cccc4c3C(C)(C)C(=O)N4)c2C1

>  <HIPPO Pose ID>  (513) 
119243

>  <energy_score>  (513) 
-50.363141

>  <inchikey>  (513) 
JAAMVWOZMWNXGR-UHFFFAOYSA-N

>  <gnina_score_min>  (513) 
6.26

>  <gnina_score>  (513) 
6.176

>  <ref_mols>  (513) 
Z3746a

>  <HIPPO Compound ID>  (513) 
183697

>  <distance_score>  (513) 
0.783275

>  <rmsd(smina/fragmenstein)>  (513) 
0.92

>  <ref_pdb>  (513) 
Z3746a

>  <inspiration_score>  (513) 
None

$$$$
P119249
     RDKit          3D

 29 32  0  0  0  0  0  0  0  0999 V2000
   -4.3119    5.2637  -16.0361 C   0  0  0  0  0  0  0  0  0  0  0  0
   -5.2814    5.7316  -17.1148 C   0  0  0  0  0  0  0  0  0  0  0  0
   -5.2631    7.2652  -17.2127 C   0  0  0  0  0  0  0  0  0  0  0  0
   -4.8202    5.2349  -18.5138 C   0  0  0  0  0  0  0  0  0  0  0  0
   -3.6948    5.2906  -18.9872 O   0  0  0  0  0  0  0  0  0  0  0  0
   -5.9395    4.7561  -19.1697 N   0  0  0  0  0  0  0  0  0  0  0  0
   -7.0152    4.6448  -18.3037 C   0  0  0  0  0  0  0  0  0  0  0  0
   -8.2379    4.0826  -18.6182 C   0  0  0  0  0  0  0  0  0  0  0  0
   -9.1901    4.0043  -17.6142 C   0  0  0  0  0  0  0  0  0  0  0  0
   -8.8917    4.4861  -16.3318 C   0  0  0  0  0  0  0  0  0  0  0  0
   -7.6381    5.0695  -16.0229 C   0  0  0  0  0  0  0  0  0  0  0  0
   -7.4618    5.7051  -14.6754 C   0  0  0  0  0  0  0  0  0  0  0  0
   -6.9042    6.7260  -14.6031 O   0  0  0  0  0  0  0  0  0  0  0  0
   -8.1806    4.8800  -13.5894 N   0  0  0  0  0  0  0  0  0  0  0  0
   -8.2788    5.0830  -12.2221 C   0  0  0  0  0  0  0  0  0  0  0  0
   -7.8449    6.2347  -11.5775 C   0  0  0  0  0  0  0  0  0  0  0  0
   -7.8461    6.2877  -10.1786 C   0  0  0  0  0  0  0  0  0  0  0  0
   -8.2149    5.1662   -9.4309 C   0  0  0  0  0  0  0  0  0  0  0  0
   -8.6473    4.0083  -10.0851 C   0  0  0  0  0  0  0  0  0  0  0  0
   -8.7306    2.6688   -9.3908 C   0  0  0  0  0  0  0  0  0  0  0  0
   -7.3974    2.0477   -9.3888 N   0  0  0  0  0  0  0  0  0  0  0  0
   -6.5913    1.8328  -10.6878 S   0  0  0  0  0  0  0  0  0  0  0  0
   -7.1549    1.5763  -12.0030 O   0  0  0  0  0  0  0  0  0  0  0  0
   -5.4270    3.1847  -10.8744 C   0  0  0  0  0  0  0  0  0  0  0  0
   -4.0401    2.6105  -10.6025 C   0  0  0  0  0  0  0  0  0  0  0  0
   -4.0800    1.1563  -11.0516 C   0  0  0  0  0  0  0  0  0  0  0  0
   -5.3485    0.5947  -10.4282 C   0  0  0  0  0  0  0  0  0  0  0  0
   -8.7634    4.0180  -11.4791 C   0  0  0  0  0  0  0  0  0  0  0  0
   -6.6882    5.1559  -17.0381 C   0  0  0  0  0  0  0  0  0  0  0  0
  1  2  1  0
  2  3  1  0
  2  4  1  0
  4  5  2  0
  4  6  1  0
  6  7  1  0
  7  8  2  0
  8  9  1  0
  9 10  2  0
 10 11  1  0
 11 12  1  0
 12 13  2  0
 12 14  1  0
 14 15  1  0
 15 16  2  0
 16 17  1  0
 17 18  2  0
 18 19  1  0
 19 20  1  0
 20 21  1  0
 21 22  2  0
 22 23  2  0
 22 24  1  0
 24 25  1  0
 25 26  1  0
 26 27  1  0
 19 28  2  0
 11 29  2  0
 29  2  1  0
 29  7  1  0
 28 15  1  0
 27 22  1  0
M  END
>  <name>  (514) 
P119249

>  <alias>  (514) 
None

>  <smina_score_min>  (514) 
-8.589

>  <exports>  (514) 
['/opt/xchem-fragalysis-2/maxwin/BulkDock/OUTPUTS/openbind_xx01zvns2b_c2_elabs_1LOUTNY.sdf', '/opt/xchem-fragalysis-2/maxwin/BulkDock/OUTPUTS/openbind_xx01zvns2b_c2_elabs_1LSYIIV.sdf']

>  <tags>  (514) 
syndirella_placed,openbind_xx01zvns2b_c2_elabs,openbind_xx01zvns2b_c2_elabs_scored_6.2plus,syndirella_product,openbind_xx01zvns2b_c2_elabs_scored,openbind_xx01zvns2b_c1_elabs_filtered,openbind_xx01zvns2b_c2_elabs_scored_top80percent,BulkDock Fragalysis export

>  <subsites>  (514) 
1 - Z4590/B/203/1

>  <smiles>  (514) 
CC1(C)C(=O)Nc2cccc(C(=O)Nc3cccc(CN=S4(=O)CCCC4)c3)c21

>  <HIPPO Pose ID>  (514) 
119249

>  <energy_score>  (514) 
-39.851789

>  <inchikey>  (514) 
VEVZRSYGQXZIBF-UHFFFAOYSA-N

>  <gnina_score_min>  (514) 
6.402

>  <gnina_score>  (514) 
6.188

>  <ref_mols>  (514) 
Z3746a

>  <HIPPO Compound ID>  (514) 
183704

>  <distance_score>  (514) 
0.653114

>  <rmsd(smina/fragmenstein)>  (514) 
0.668

>  <ref_pdb>  (514) 
Z3746a

>  <inspiration_score>  (514) 
None

$$$$
P119254
     RDKit          3D

 29 32  0  0  0  0  0  0  0  0999 V2000
   -2.3222    1.5536  -10.2348 C   0  0  0  0  0  0  0  0  0  0  0  0
   -3.7192    1.6872   -9.8511 N   0  0  0  0  0  0  0  0  0  0  0  0
   -4.6268    1.3215  -10.9461 C   0  0  0  0  0  0  0  0  0  0  0  0
   -6.1125    1.3164  -10.5017 C   0  0  0  0  0  0  0  0  0  0  0  0
   -6.4765    2.3493   -9.5420 N   0  0  0  0  0  0  0  0  0  0  0  0
   -7.9027    2.6435   -9.3476 C   0  0  0  0  0  0  0  0  0  0  0  0
   -8.3081    3.8662  -10.1386 C   0  0  0  0  0  0  0  0  0  0  0  0
   -8.2712    5.1365   -9.5419 C   0  0  0  0  0  0  0  0  0  0  0  0
   -8.2032    6.2760  -10.3376 C   0  0  0  0  0  0  0  0  0  0  0  0
   -8.1511    6.1456  -11.7251 C   0  0  0  0  0  0  0  0  0  0  0  0
   -8.2618    4.8855  -12.3117 C   0  0  0  0  0  0  0  0  0  0  0  0
   -8.1663    4.7096  -13.6804 N   0  0  0  0  0  0  0  0  0  0  0  0
   -7.5417    5.6088  -14.7634 C   0  0  0  0  0  0  0  0  0  0  0  0
   -7.0773    6.6742  -14.6846 O   0  0  0  0  0  0  0  0  0  0  0  0
   -7.6779    4.9842  -16.1096 C   0  0  0  0  0  0  0  0  0  0  0  0
   -8.9223    4.3921  -16.4327 C   0  0  0  0  0  0  0  0  0  0  0  0
   -9.2017    3.9296  -17.7237 C   0  0  0  0  0  0  0  0  0  0  0  0
   -8.2370    4.0328  -18.7145 C   0  0  0  0  0  0  0  0  0  0  0  0
   -7.0230    4.6051  -18.3815 C   0  0  0  0  0  0  0  0  0  0  0  0
   -6.7166    5.1023  -17.1081 C   0  0  0  0  0  0  0  0  0  0  0  0
   -5.3191    5.7008  -17.1580 C   0  0  0  0  0  0  0  0  0  0  0  0
   -4.3592    5.2447  -16.0664 C   0  0  0  0  0  0  0  0  0  0  0  0
   -5.3216    7.2348  -17.2402 C   0  0  0  0  0  0  0  0  0  0  0  0
   -4.8321    5.2237  -18.5547 C   0  0  0  0  0  0  0  0  0  0  0  0
   -3.7003    5.2950  -19.0104 O   0  0  0  0  0  0  0  0  0  0  0  0
   -5.9374    4.7399  -19.2319 N   0  0  0  0  0  0  0  0  0  0  0  0
   -8.4146    3.7539  -11.5259 C   0  0  0  0  0  0  0  0  0  0  0  0
   -5.5296    3.4605   -9.4776 C   0  0  0  0  0  0  0  0  0  0  0  0
   -4.0361    3.0408   -9.3687 C   0  0  0  0  0  0  0  0  0  0  0  0
  1  2  1  0
  2  3  1  0
  3  4  1  0
  4  5  1  0
  5  6  1  0
  6  7  1  0
  7  8  2  0
  8  9  1  0
  9 10  2  0
 10 11  1  0
 11 12  1  0
 12 13  1  0
 13 14  2  0
 13 15  1  0
 15 16  2  0
 16 17  1  0
 17 18  2  0
 18 19  1  0
 19 20  2  0
 20 21  1  0
 21 22  1  0
 21 23  1  0
 21 24  1  0
 24 25  2  0
 24 26  1  0
 11 27  2  0
  5 28  1  0
 28 29  1  0
 29  2  1  0
 27  7  1  0
 20 15  1  0
 26 19  1  0
M  END
>  <name>  (515) 
P119254

>  <alias>  (515) 
None

>  <smina_score_min>  (515) 
-8.162

>  <exports>  (515) 
['/opt/xchem-fragalysis-2/maxwin/BulkDock/OUTPUTS/openbind_xx01zvns2b_c2_elabs_1LOUTNY.sdf', '/opt/xchem-fragalysis-2/maxwin/BulkDock/OUTPUTS/openbind_xx01zvns2b_c2_elabs_1LSYIIV.sdf']

>  <tags>  (515) 
syndirella_placed,openbind_xx01zvns2b_c2_elabs,openbind_xx01zvns2b_c2_elabs_scored_6.2plus,syndirella_product,openbind_xx01zvns2b_c2_elabs_scored,openbind_xx01zvns2b_c1_elabs_filtered,openbind_xx01zvns2b_c2_elabs_scored_top80percent,BulkDock Fragalysis export

>  <subsites>  (515) 
1 - Z4590/B/203/1

>  <smiles>  (515) 
CN1CCN(Cc2cccc(NC(=O)c3cccc4c3C(C)(C)C(=O)N4)c2)CC1

>  <HIPPO Pose ID>  (515) 
119254

>  <energy_score>  (515) 
-22.662273

>  <inchikey>  (515) 
BWVPMKRIMZWROX-UHFFFAOYSA-N

>  <gnina_score_min>  (515) 
6.249

>  <gnina_score>  (515) 
6.215

>  <ref_mols>  (515) 
Z3746a

>  <HIPPO Compound ID>  (515) 
183710

>  <distance_score>  (515) 
0.832178

>  <rmsd(smina/fragmenstein)>  (515) 
1.215

>  <ref_pdb>  (515) 
Z3746a

>  <inspiration_score>  (515) 
None

$$$$
P119263
     RDKit          3D

 29 32  0  0  0  0  0  0  0  0999 V2000
   -7.9824    2.4022  -11.4754 C   0  0  0  0  0  0  0  0  0  0  0  0
   -7.9949    3.8330  -11.0192 C   0  0  0  0  0  0  0  0  0  0  0  0
   -8.2845    4.1033   -9.6495 C   0  0  0  0  0  0  0  0  0  0  0  0
   -8.6344    2.9535   -8.6962 C   0  0  0  0  0  0  0  0  0  0  0  0
   -9.1955    3.3484   -7.3940 N   0  0  0  0  0  0  0  0  0  0  0  0
  -10.0351    2.2669   -6.8548 C   0  0  0  0  0  0  0  0  0  0  0  0
  -10.6654    2.5161   -5.4720 C   0  0  0  0  0  0  0  0  0  0  0  0
  -10.5594    4.2262   -4.8360 S   0  0  0  0  0  0  0  0  0  0  0  0
   -8.8226    4.5943   -5.2939 C   0  0  0  0  0  0  0  0  0  0  0  0
   -8.2027    3.6898   -6.3730 C   0  0  0  0  0  0  0  0  0  0  0  0
   -8.2465    5.4357   -9.2160 C   0  0  0  0  0  0  0  0  0  0  0  0
   -7.9211    6.4700  -10.0884 C   0  0  0  0  0  0  0  0  0  0  0  0
   -7.6707    6.2012  -11.4297 C   0  0  0  0  0  0  0  0  0  0  0  0
   -7.7387    4.8960  -11.9155 C   0  0  0  0  0  0  0  0  0  0  0  0
   -7.6371    4.6778  -13.2967 N   0  0  0  0  0  0  0  0  0  0  0  0
   -7.2292    5.6402  -14.4398 C   0  0  0  0  0  0  0  0  0  0  0  0
   -6.8407    6.7409  -14.4001 O   0  0  0  0  0  0  0  0  0  0  0  0
   -7.4887    5.0349  -15.7792 C   0  0  0  0  0  0  0  0  0  0  0  0
   -8.7648    4.4747  -16.0082 C   0  0  0  0  0  0  0  0  0  0  0  0
   -9.1606    4.0550  -17.2892 C   0  0  0  0  0  0  0  0  0  0  0  0
   -8.2827    4.1582  -18.3620 C   0  0  0  0  0  0  0  0  0  0  0  0
   -7.0308    4.6880  -18.1146 C   0  0  0  0  0  0  0  0  0  0  0  0
   -6.6159    5.1545  -16.8577 C   0  0  0  0  0  0  0  0  0  0  0  0
   -5.2161    5.7283  -17.0075 C   0  0  0  0  0  0  0  0  0  0  0  0
   -5.2077    7.2634  -17.0764 C   0  0  0  0  0  0  0  0  0  0  0  0
   -4.1907    5.2473  -15.9887 C   0  0  0  0  0  0  0  0  0  0  0  0
   -4.8417    5.2539  -18.4399 C   0  0  0  0  0  0  0  0  0  0  0  0
   -3.7427    5.3012  -18.9727 O   0  0  0  0  0  0  0  0  0  0  0  0
   -6.0067    4.8082  -19.0413 N   0  0  0  0  0  0  0  0  0  0  0  0
  1  2  1  0
  2  3  2  0
  3  4  1  0
  4  5  1  0
  5  6  1  0
  6  7  1  0
  7  8  1  0
  8  9  1  0
  9 10  1  0
  3 11  1  0
 11 12  2  0
 12 13  1  0
 13 14  2  0
 14 15  1  0
 15 16  1  0
 16 17  2  0
 16 18  1  0
 18 19  2  0
 19 20  1  0
 20 21  2  0
 21 22  1  0
 22 23  2  0
 23 24  1  0
 24 25  1  0
 24 26  1  0
 24 27  1  0
 27 28  2  0
 27 29  1  0
 14  2  1  0
 23 18  1  0
 10  5  1  0
 29 22  1  0
M  END
>  <name>  (516) 
P119263

>  <alias>  (516) 
None

>  <smina_score_min>  (516) 
-9.037

>  <exports>  (516) 
['/opt/xchem-fragalysis-2/maxwin/BulkDock/OUTPUTS/openbind_xx01zvns2b_c2_elabs_1LOUTNY.sdf', '/opt/xchem-fragalysis-2/maxwin/BulkDock/OUTPUTS/openbind_xx01zvns2b_c2_elabs_1LSYIIV.sdf']

>  <tags>  (516) 
syndirella_placed,openbind_xx01zvns2b_c2_elabs,openbind_xx01zvns2b_c2_elabs_scored_6.2plus,syndirella_product,openbind_xx01zvns2b_c2_elabs_scored,openbind_xx01zvns2b_c1_elabs_filtered,openbind_xx01zvns2b_c2_elabs_scored_top80percent,BulkDock Fragalysis export

>  <subsites>  (516) 
1 - Z4590/B/203/1

>  <smiles>  (516) 
Cc1c(CN2CCSCC2)cccc1NC(=O)c1cccc2c1C(C)(C)C(=O)N2

>  <HIPPO Pose ID>  (516) 
119263

>  <energy_score>  (516) 
-45.056494

>  <inchikey>  (516) 
UNGUSTFNVTWAJQ-UHFFFAOYSA-N

>  <gnina_score_min>  (516) 
6.282

>  <gnina_score>  (516) 
6.114

>  <ref_mols>  (516) 
Z3746a

>  <HIPPO Compound ID>  (516) 
183721

>  <distance_score>  (516) 
0.759336

>  <rmsd(smina/fragmenstein)>  (516) 
0.41

>  <ref_pdb>  (516) 
Z3746a

>  <inspiration_score>  (516) 
None

$$$$
P119264
     RDKit          3D

 29 32  0  0  0  0  0  0  0  0999 V2000
   -4.3543    5.2453  -16.0664 C   0  0  0  0  0  0  0  0  0  0  0  0
   -5.3199    5.6935  -17.1563 C   0  0  0  0  0  0  0  0  0  0  0  0
   -5.3245    7.2273  -17.2491 C   0  0  0  0  0  0  0  0  0  0  0  0
   -4.8378    5.2119  -18.5531 C   0  0  0  0  0  0  0  0  0  0  0  0
   -3.7074    5.2794  -19.0127 O   0  0  0  0  0  0  0  0  0  0  0  0
   -5.9468    4.7299  -19.2259 N   0  0  0  0  0  0  0  0  0  0  0  0
   -7.0284    4.5949  -18.3704 C   0  0  0  0  0  0  0  0  0  0  0  0
   -8.2448    4.0254  -18.6982 C   0  0  0  0  0  0  0  0  0  0  0  0
   -9.2035    3.9202  -17.7015 C   0  0  0  0  0  0  0  0  0  0  0  0
   -8.9174    4.3796  -16.4101 C   0  0  0  0  0  0  0  0  0  0  0  0
   -7.6722    4.9721  -16.0930 C   0  0  0  0  0  0  0  0  0  0  0  0
   -7.5412    5.6248  -14.7601 C   0  0  0  0  0  0  0  0  0  0  0  0
   -7.0705    6.6895  -14.7136 O   0  0  0  0  0  0  0  0  0  0  0  0
   -8.1737    4.7632  -13.6504 N   0  0  0  0  0  0  0  0  0  0  0  0
   -8.2707    4.9826  -12.2870 C   0  0  0  0  0  0  0  0  0  0  0  0
   -8.1783    6.2714  -11.7613 C   0  0  0  0  0  0  0  0  0  0  0  0
   -8.2266    6.4711  -10.3837 C   0  0  0  0  0  0  0  0  0  0  0  0
   -8.2759    5.3736   -9.5331 C   0  0  0  0  0  0  0  0  0  0  0  0
   -8.2981    4.0759  -10.0634 C   0  0  0  0  0  0  0  0  0  0  0  0
   -7.8401    2.9152   -9.2100 C   0  0  0  0  0  0  0  0  0  0  0  0
   -6.4092    2.6987   -9.5161 N   0  0  0  0  0  0  0  0  0  0  0  0
   -6.0368    1.6722  -10.3698 C   0  0  0  0  0  0  0  0  0  0  0  0
   -4.7614    1.4558  -10.7093 C   0  0  0  0  0  0  0  0  0  0  0  0
   -3.7288    2.3143  -10.1990 C   0  0  0  0  0  0  0  0  0  0  0  0
   -4.0410    3.3365   -9.3942 C   0  0  0  0  0  0  0  0  0  0  0  0
   -5.4582    3.5892   -8.9936 C   0  0  0  0  0  0  0  0  0  0  0  0
   -5.6768    4.5357   -8.2371 O   0  0  0  0  0  0  0  0  0  0  0  0
   -8.4039    3.8878  -11.4464 C   0  0  0  0  0  0  0  0  0  0  0  0
   -6.7159    5.0906  -17.0977 C   0  0  0  0  0  0  0  0  0  0  0  0
  1  2  1  0
  2  3  1  0
  2  4  1  0
  4  5  2  0
  4  6  1  0
  6  7  1  0
  7  8  2  0
  8  9  1  0
  9 10  2  0
 10 11  1  0
 11 12  1  0
 12 13  2  0
 12 14  1  0
 14 15  1  0
 15 16  2  0
 16 17  1  0
 17 18  2  0
 18 19  1  0
 19 20  1  0
 20 21  1  0
 21 22  1  0
 22 23  2  0
 23 24  1  0
 24 25  2  0
 25 26  1  0
 26 27  2  0
 19 28  2  0
 11 29  2  0
 29  2  1  0
 29  7  1  0
 28 15  1  0
 26 21  1  0
M  END
>  <name>  (517) 
P119264

>  <alias>  (517) 
None

>  <smina_score_min>  (517) 
-8.068

>  <exports>  (517) 
['/opt/xchem-fragalysis-2/maxwin/BulkDock/OUTPUTS/openbind_xx01zvns2b_c2_elabs_1LOUTNY.sdf', '/opt/xchem-fragalysis-2/maxwin/BulkDock/OUTPUTS/openbind_xx01zvns2b_c2_elabs_1LSYIIV.sdf']

>  <tags>  (517) 
syndirella_placed,openbind_xx01zvns2b_c2_elabs,openbind_xx01zvns2b_c2_elabs_scored_6.2plus,syndirella_product,openbind_xx01zvns2b_c2_elabs_scored,openbind_xx01zvns2b_c1_elabs_filtered,openbind_xx01zvns2b_c2_elabs_scored_top80percent,BulkDock Fragalysis export

>  <subsites>  (517) 
1 - Z4590/B/203/1

>  <smiles>  (517) 
CC1(C)C(=O)Nc2cccc(C(=O)Nc3cccc(Cn4ccccc4=O)c3)c21

>  <HIPPO Pose ID>  (517) 
119264

>  <energy_score>  (517) 
-25.002464

>  <inchikey>  (517) 
AJKUXLOQPIRJOD-UHFFFAOYSA-N

>  <gnina_score_min>  (517) 
6.254

>  <gnina_score>  (517) 
6.132

>  <ref_mols>  (517) 
Z3746a

>  <HIPPO Compound ID>  (517) 
183722

>  <distance_score>  (517) 
0.879391

>  <rmsd(smina/fragmenstein)>  (517) 
0.636

>  <ref_pdb>  (517) 
Z3746a

>  <inspiration_score>  (517) 
None

$$$$
P119265
     RDKit          3D

 29 32  0  0  0  0  0  0  0  0999 V2000
   -7.7125    7.5929  -12.1888 C   0  0  0  0  0  0  0  0  0  0  0  0
   -7.8472    6.3102  -11.4223 C   0  0  0  0  0  0  0  0  0  0  0  0
   -7.9746    6.4496  -10.0310 C   0  0  0  0  0  0  0  0  0  0  0  0
   -8.2113    5.3552   -9.2079 C   0  0  0  0  0  0  0  0  0  0  0  0
   -8.3203    4.0694   -9.7347 C   0  0  0  0  0  0  0  0  0  0  0  0
   -8.5703    2.8467   -8.8566 C   0  0  0  0  0  0  0  0  0  0  0  0
   -9.1790    3.1570   -7.5531 N   0  0  0  0  0  0  0  0  0  0  0  0
   -8.2482    3.4848   -6.4721 C   0  0  0  0  0  0  0  0  0  0  0  0
   -8.9385    4.3585   -5.4086 C   0  0  0  0  0  0  0  0  0  0  0  0
  -10.6813    3.9278   -5.0412 S   0  0  0  0  0  0  0  0  0  0  0  0
  -10.6785    2.2242   -5.7048 C   0  0  0  0  0  0  0  0  0  0  0  0
  -10.0278    2.0524   -7.0925 C   0  0  0  0  0  0  0  0  0  0  0  0
   -8.1649    3.9223  -11.1293 C   0  0  0  0  0  0  0  0  0  0  0  0
   -7.9071    5.0224  -11.9807 C   0  0  0  0  0  0  0  0  0  0  0  0
   -7.7906    4.7226  -13.3508 N   0  0  0  0  0  0  0  0  0  0  0  0
   -7.2264    5.5694  -14.5242 C   0  0  0  0  0  0  0  0  0  0  0  0
   -6.7020    6.6140  -14.5206 O   0  0  0  0  0  0  0  0  0  0  0  0
   -7.5051    4.9614  -15.8579 C   0  0  0  0  0  0  0  0  0  0  0  0
   -8.7874    4.4184  -16.0926 C   0  0  0  0  0  0  0  0  0  0  0  0
   -9.1865    4.0122  -17.3769 C   0  0  0  0  0  0  0  0  0  0  0  0
   -8.3078    4.1139  -18.4486 C   0  0  0  0  0  0  0  0  0  0  0  0
   -7.0531    4.6358  -18.2007 C   0  0  0  0  0  0  0  0  0  0  0  0
   -6.6338    5.0900  -16.9410 C   0  0  0  0  0  0  0  0  0  0  0  0
   -5.2380    5.6796  -17.0989 C   0  0  0  0  0  0  0  0  0  0  0  0
   -5.2475    7.2157  -17.1898 C   0  0  0  0  0  0  0  0  0  0  0  0
   -4.1892    5.2241  -16.0917 C   0  0  0  0  0  0  0  0  0  0  0  0
   -4.8654    5.2042  -18.5303 C   0  0  0  0  0  0  0  0  0  0  0  0
   -3.7670    5.2519  -19.0644 O   0  0  0  0  0  0  0  0  0  0  0  0
   -6.0320    4.7618  -19.1302 N   0  0  0  0  0  0  0  0  0  0  0  0
  1  2  1  0
  2  3  2  0
  3  4  1  0
  4  5  2  0
  5  6  1  0
  6  7  1  0
  7  8  1  0
  8  9  1  0
  9 10  1  0
 10 11  1  0
 11 12  1  0
  5 13  1  0
 13 14  2  0
 14 15  1  0
 15 16  1  0
 16 17  2  0
 16 18  1  0
 18 19  2  0
 19 20  1  0
 20 21  2  0
 21 22  1  0
 22 23  2  0
 23 24  1  0
 24 25  1  0
 24 26  1  0
 24 27  1  0
 27 28  2  0
 27 29  1  0
 14  2  1  0
 23 18  1  0
 12  7  1  0
 29 22  1  0
M  END
>  <name>  (518) 
P119265

>  <alias>  (518) 
None

>  <smina_score_min>  (518) 
-9.125

>  <exports>  (518) 
['/opt/xchem-fragalysis-2/maxwin/BulkDock/OUTPUTS/openbind_xx01zvns2b_c2_elabs_1LOUTNY.sdf', '/opt/xchem-fragalysis-2/maxwin/BulkDock/OUTPUTS/openbind_xx01zvns2b_c2_elabs_1LSYIIV.sdf']

>  <tags>  (518) 
syndirella_placed,openbind_xx01zvns2b_c2_elabs,openbind_xx01zvns2b_c2_elabs_scored_6.2plus,syndirella_product,openbind_xx01zvns2b_c2_elabs_scored,openbind_xx01zvns2b_c1_elabs_filtered,openbind_xx01zvns2b_c2_elabs_scored_top80percent,BulkDock Fragalysis export

>  <subsites>  (518) 
1 - Z4590/B/203/1

>  <smiles>  (518) 
Cc1ccc(CN2CCSCC2)cc1NC(=O)c1cccc2c1C(C)(C)C(=O)N2

>  <HIPPO Pose ID>  (518) 
119265

>  <energy_score>  (518) 
-32.549573

>  <inchikey>  (518) 
AQFZQOUWAJNFEE-UHFFFAOYSA-N

>  <gnina_score_min>  (518) 
6.272

>  <gnina_score>  (518) 
6.068

>  <ref_mols>  (518) 
Z3746a

>  <HIPPO Compound ID>  (518) 
183723

>  <distance_score>  (518) 
0.696558

>  <rmsd(smina/fragmenstein)>  (518) 
0.5

>  <ref_pdb>  (518) 
Z3746a

>  <inspiration_score>  (518) 
None

$$$$
P119271
     RDKit          3D

 29 33  0  0  0  0  0  0  0  0999 V2000
   -5.2547    7.2586  -17.1673 C   0  0  0  0  0  0  0  0  0  0  0  0
   -5.2602    5.7246  -17.0818 C   0  0  0  0  0  0  0  0  0  0  0  0
   -4.2627    5.2596  -16.0283 C   0  0  0  0  0  0  0  0  0  0  0  0
   -4.8415    5.2385  -18.4975 C   0  0  0  0  0  0  0  0  0  0  0  0
   -3.7292    5.2922  -19.0008 O   0  0  0  0  0  0  0  0  0  0  0  0
   -5.9842    4.7727  -19.1253 N   0  0  0  0  0  0  0  0  0  0  0  0
   -7.0321    4.6512  -18.2262 C   0  0  0  0  0  0  0  0  0  0  0  0
   -8.2699    4.1013  -18.5007 C   0  0  0  0  0  0  0  0  0  0  0  0
   -9.1782    3.9992  -17.4543 C   0  0  0  0  0  0  0  0  0  0  0  0
   -8.8260    4.4440  -16.1708 C   0  0  0  0  0  0  0  0  0  0  0  0
   -7.5651    5.0279  -15.9155 C   0  0  0  0  0  0  0  0  0  0  0  0
   -7.3655    5.6789  -14.5904 C   0  0  0  0  0  0  0  0  0  0  0  0
   -6.9883    6.7819  -14.5732 O   0  0  0  0  0  0  0  0  0  0  0  0
   -7.8101    4.7560  -13.4366 N   0  0  0  0  0  0  0  0  0  0  0  0
   -7.9679    5.0178  -12.0810 C   0  0  0  0  0  0  0  0  0  0  0  0
   -7.9955    6.3294  -11.5978 C   0  0  0  0  0  0  0  0  0  0  0  0
   -8.1396    6.5968  -10.2240 C   0  0  0  0  0  0  0  0  0  0  0  0
   -8.2207    5.5572   -9.3023 C   0  0  0  0  0  0  0  0  0  0  0  0
   -8.1589    4.2663   -9.7887 C   0  0  0  0  0  0  0  0  0  0  0  0
   -8.0698    3.9938  -11.1626 C   0  0  0  0  0  0  0  0  0  0  0  0
   -7.9274    2.5153  -11.3420 C   0  0  0  0  0  0  0  0  0  0  0  0
   -7.4276    2.0793  -10.0228 N   0  0  0  0  0  0  0  0  0  0  0  0
   -6.0749    1.8329  -10.0347 C   0  0  0  0  0  0  0  0  0  0  0  0
   -5.5661    0.6717  -10.4009 N   0  0  0  0  0  0  0  0  0  0  0  0
   -4.1905    0.7182  -10.4591 C   0  0  0  0  0  0  0  0  0  0  0  0
   -3.6255    1.9278  -10.1375 C   0  0  0  0  0  0  0  0  0  0  0  0
   -4.8553    3.0584   -9.7797 S   0  0  0  0  0  0  0  0  0  0  0  0
   -8.0012    2.9910   -9.0150 C   0  0  0  0  0  0  0  0  0  0  0  0
   -6.6589    5.1399  -16.9661 C   0  0  0  0  0  0  0  0  0  0  0  0
  1  2  1  0
  2  3  1  0
  2  4  1  0
  4  5  2  0
  4  6  1  0
  6  7  1  0
  7  8  2  0
  8  9  1  0
  9 10  2  0
 10 11  1  0
 11 12  1  0
 12 13  2  0
 12 14  1  0
 14 15  1  0
 15 16  2  0
 16 17  1  0
 17 18  2  0
 18 19  1  0
 19 20  2  0
 20 21  1  0
 21 22  1  0
 22 23  1  0
 23 24  2  0
 24 25  1  0
 25 26  2  0
 26 27  1  0
 22 28  1  0
 11 29  2  0
 29  2  1  0
 29  7  1  0
 20 15  1  0
 27 23  1  0
 28 19  1  0
M  END
>  <name>  (519) 
P119271

>  <alias>  (519) 
None

>  <smina_score_min>  (519) 
-9.091

>  <exports>  (519) 
['/opt/xchem-fragalysis-2/maxwin/BulkDock/OUTPUTS/openbind_xx01zvns2b_c2_elabs_1LOUTNY.sdf', '/opt/xchem-fragalysis-2/maxwin/BulkDock/OUTPUTS/openbind_xx01zvns2b_c2_elabs_1LSYIIV.sdf']

>  <tags>  (519) 
syndirella_placed,openbind_xx01zvns2b_c2_elabs,openbind_xx01zvns2b_c2_elabs_scored_6.2plus,syndirella_product,openbind_xx01zvns2b_c2_elabs_scored,openbind_xx01zvns2b_c1_elabs_filtered,openbind_xx01zvns2b_c2_elabs_scored_top80percent,BulkDock Fragalysis export

>  <subsites>  (519) 
1 - Z4590/B/203/1

>  <smiles>  (519) 
CC1(C)C(=O)Nc2cccc(C(=O)Nc3cccc4c3CN(c3nccs3)C4)c21

>  <HIPPO Pose ID>  (519) 
119271

>  <energy_score>  (519) 
-55.800463

>  <inchikey>  (519) 
FVUAIGRHBFBWCG-UHFFFAOYSA-N

>  <gnina_score_min>  (519) 
6.27

>  <gnina_score>  (519) 
6.343

>  <ref_mols>  (519) 
Z3746a

>  <HIPPO Compound ID>  (519) 
183731

>  <distance_score>  (519) 
0.792353

>  <rmsd(smina/fragmenstein)>  (519) 
0.497

>  <ref_pdb>  (519) 
Z3746a

>  <inspiration_score>  (519) 
None

$$$$
P119343
     RDKit          3D

 29 32  0  0  0  0  0  0  0  0999 V2000
   -5.2721    7.2517  -17.3895 C   0  0  0  0  0  0  0  0  0  0  0  0
   -5.2695    5.7194  -17.2557 C   0  0  0  0  0  0  0  0  0  0  0  0
   -4.2650    5.2841  -16.1952 C   0  0  0  0  0  0  0  0  0  0  0  0
   -4.8396    5.2017  -18.6543 C   0  0  0  0  0  0  0  0  0  0  0  0
   -3.7231    5.2489  -19.1495 O   0  0  0  0  0  0  0  0  0  0  0  0
   -5.9744    4.7144  -19.2776 N   0  0  0  0  0  0  0  0  0  0  0  0
   -7.0276    4.6070  -18.3832 C   0  0  0  0  0  0  0  0  0  0  0  0
   -8.2605    4.0438  -18.6532 C   0  0  0  0  0  0  0  0  0  0  0  0
   -9.1814    3.9701  -17.6174 C   0  0  0  0  0  0  0  0  0  0  0  0
   -8.8451    4.4562  -16.3461 C   0  0  0  0  0  0  0  0  0  0  0  0
   -7.5848    5.0459  -16.0902 C   0  0  0  0  0  0  0  0  0  0  0  0
   -7.3700    5.7289  -14.7811 C   0  0  0  0  0  0  0  0  0  0  0  0
   -6.8372    6.7645  -14.7860 O   0  0  0  0  0  0  0  0  0  0  0  0
   -8.0101    4.9422  -13.6242 N   0  0  0  0  0  0  0  0  0  0  0  0
   -8.2061    5.2914  -12.2999 C   0  0  0  0  0  0  0  0  0  0  0  0
   -8.0244    6.5997  -11.8527 C   0  0  0  0  0  0  0  0  0  0  0  0
   -8.1110    6.9008  -10.4920 C   0  0  0  0  0  0  0  0  0  0  0  0
   -8.2878    5.8790   -9.5691 C   0  0  0  0  0  0  0  0  0  0  0  0
   -8.4203    4.5646  -10.0245 C   0  0  0  0  0  0  0  0  0  0  0  0
   -8.1612    3.4097   -9.0967 C   0  0  0  0  0  0  0  0  0  0  0  0
   -6.9295    2.7243   -9.5162 N   0  0  0  0  0  0  0  0  0  0  0  0
   -5.7895    3.3954   -9.9262 C   0  0  0  0  0  0  0  0  0  0  0  0
   -4.7052    2.7357  -10.3315 C   0  0  0  0  0  0  0  0  0  0  0  0
   -4.8393    1.2773  -10.3027 C   0  0  0  0  0  0  0  0  0  0  0  0
   -5.8467    0.6264   -9.8385 N   0  0  0  0  0  0  0  0  0  0  0  0
   -6.9187    1.3510   -9.3414 C   0  0  0  0  0  0  0  0  0  0  0  0
   -7.8466    0.8421   -8.7221 O   0  0  0  0  0  0  0  0  0  0  0  0
   -8.4962    4.2851  -11.3977 C   0  0  0  0  0  0  0  0  0  0  0  0
   -6.6665    5.1282  -17.1339 C   0  0  0  0  0  0  0  0  0  0  0  0
  1  2  1  0
  2  3  1  0
  2  4  1  0
  4  5  2  0
  4  6  1  0
  6  7  1  0
  7  8  2  0
  8  9  1  0
  9 10  2  0
 10 11  1  0
 11 12  1  0
 12 13  2  0
 12 14  1  0
 14 15  1  0
 15 16  2  0
 16 17  1  0
 17 18  2  0
 18 19  1  0
 19 20  1  0
 20 21  1  0
 21 22  1  0
 22 23  2  0
 23 24  1  0
 24 25  2  0
 25 26  1  0
 26 27  2  0
 19 28  2  0
 11 29  2  0
 29  2  1  0
 29  7  1  0
 28 15  1  0
 26 21  1  0
M  END
>  <name>  (520) 
P119343

>  <alias>  (520) 
None

>  <smina_score_min>  (520) 
-8.46

>  <exports>  (520) 
['/opt/xchem-fragalysis-2/maxwin/BulkDock/OUTPUTS/openbind_xx01zvns2b_c2_elabs_1LOUTNY.sdf', '/opt/xchem-fragalysis-2/maxwin/BulkDock/OUTPUTS/openbind_xx01zvns2b_c2_elabs_1LSYIIV.sdf']

>  <tags>  (520) 
syndirella_placed,openbind_xx01zvns2b_c2_elabs,openbind_xx01zvns2b_c2_elabs_scored_6.2plus,syndirella_product,openbind_xx01zvns2b_c2_elabs_scored,openbind_xx01zvns2b_c1_elabs_filtered,openbind_xx01zvns2b_c2_elabs_scored_top80percent,BulkDock Fragalysis export

>  <subsites>  (520) 
1 - Z4590/B/203/1

>  <smiles>  (520) 
CC1(C)C(=O)Nc2cccc(C(=O)Nc3cccc(Cn4cccnc4=O)c3)c21

>  <HIPPO Pose ID>  (520) 
119343

>  <energy_score>  (520) 
-15.552174

>  <inchikey>  (520) 
IQBGMGHZFRZTGS-UHFFFAOYSA-N

>  <gnina_score_min>  (520) 
6.263

>  <gnina_score>  (520) 
6.208

>  <ref_mols>  (520) 
Z3746a

>  <HIPPO Compound ID>  (520) 
183825

>  <distance_score>  (520) 
0.92386

>  <rmsd(smina/fragmenstein)>  (520) 
1.567

>  <ref_pdb>  (520) 
Z3746a

>  <inspiration_score>  (520) 
None

$$$$
P119356
     RDKit          3D

 30 33  0  0  0  0  0  0  0  0999 V2000
   -5.2286    7.2227  -17.1241 C   0  0  0  0  0  0  0  0  0  0  0  0
   -5.2459    5.6887  -17.0000 C   0  0  0  0  0  0  0  0  0  0  0  0
   -4.1913    5.2356  -15.9982 C   0  0  0  0  0  0  0  0  0  0  0  0
   -4.9090    5.1825  -18.4299 C   0  0  0  0  0  0  0  0  0  0  0  0
   -3.8217    5.2083  -18.9879 O   0  0  0  0  0  0  0  0  0  0  0  0
   -6.0954    4.7482  -18.9969 N   0  0  0  0  0  0  0  0  0  0  0  0
   -7.0974    4.6501  -18.0431 C   0  0  0  0  0  0  0  0  0  0  0  0
   -8.3636    4.1424  -18.2528 C   0  0  0  0  0  0  0  0  0  0  0  0
   -9.2136    4.0656  -17.1538 C   0  0  0  0  0  0  0  0  0  0  0  0
   -8.7806    4.4836  -15.8817 C   0  0  0  0  0  0  0  0  0  0  0  0
   -7.4928    5.0218  -15.6902 C   0  0  0  0  0  0  0  0  0  0  0  0
   -7.1762    5.6803  -14.3901 C   0  0  0  0  0  0  0  0  0  0  0  0
   -6.7206    6.7551  -14.4675 O   0  0  0  0  0  0  0  0  0  0  0  0
   -7.6053    4.8551  -13.1430 N   0  0  0  0  0  0  0  0  0  0  0  0
   -7.6482    5.2108  -11.7855 C   0  0  0  0  0  0  0  0  0  0  0  0
   -7.2293    6.5016  -11.4406 C   0  0  0  0  0  0  0  0  0  0  0  0
   -7.2464    6.9458  -10.1234 C   0  0  0  0  0  0  0  0  0  0  0  0
   -7.6683    6.0942   -9.1204 C   0  0  0  0  0  0  0  0  0  0  0  0
   -8.0930    4.7976   -9.4291 C   0  0  0  0  0  0  0  0  0  0  0  0
   -8.0908    4.3410  -10.7688 C   0  0  0  0  0  0  0  0  0  0  0  0
   -8.6106    2.9545  -11.0375 C   0  0  0  0  0  0  0  0  0  0  0  0
   -8.8376    2.1015   -9.7730 C   0  0  0  0  0  0  0  0  0  0  0  0
   -9.3655    2.8313   -8.6180 N   0  0  0  0  0  0  0  0  0  0  0  0
   -9.5461    1.9109   -7.4562 C   0  0  0  0  0  0  0  0  0  0  0  0
  -10.0314    2.5069   -6.1157 C   0  0  0  0  0  0  0  0  0  0  0  0
   -9.0370    3.1789   -5.4831 F   0  0  0  0  0  0  0  0  0  0  0  0
  -11.0530    3.3818   -6.2668 F   0  0  0  0  0  0  0  0  0  0  0  0
  -10.4686    1.5394   -5.2786 F   0  0  0  0  0  0  0  0  0  0  0  0
   -8.4494    3.9037   -8.2677 C   0  0  0  0  0  0  0  0  0  0  0  0
   -6.6466    5.1207  -16.8002 C   0  0  0  0  0  0  0  0  0  0  0  0
  1  2  1  0
  2  3  1  0
  2  4  1  0
  4  5  2  0
  4  6  1  0
  6  7  1  0
  7  8  2  0
  8  9  1  0
  9 10  2  0
 10 11  1  0
 11 12  1  0
 12 13  2  0
 12 14  1  0
 14 15  1  0
 15 16  2  0
 16 17  1  0
 17 18  2  0
 18 19  1  0
 19 20  2  0
 20 21  1  0
 21 22  1  0
 22 23  1  0
 23 24  1  0
 24 25  1  0
 25 26  1  0
 25 27  1  0
 25 28  1  0
 23 29  1  0
 11 30  2  0
 30  2  1  0
 30  7  1  0
 20 15  1  0
 29 19  1  0
M  END
>  <name>  (521) 
P119356

>  <alias>  (521) 
None

>  <smina_score_min>  (521) 
-9.303

>  <exports>  (521) 
['/opt/xchem-fragalysis-2/maxwin/BulkDock/OUTPUTS/openbind_xx01zvns2b_c2_elabs_1LOUTNY.sdf', '/opt/xchem-fragalysis-2/maxwin/BulkDock/OUTPUTS/openbind_xx01zvns2b_c2_elabs_1LSYIIV.sdf']

>  <tags>  (521) 
syndirella_placed,openbind_xx01zvns2b_c2_elabs,openbind_xx01zvns2b_c2_elabs_scored_6.2plus,syndirella_product,openbind_xx01zvns2b_c2_elabs_scored,openbind_xx01zvns2b_c1_elabs_filtered,openbind_xx01zvns2b_c2_elabs_scored_top80percent,BulkDock Fragalysis export

>  <subsites>  (521) 
1 - Z4590/B/203/1

>  <smiles>  (521) 
CC1(C)C(=O)Nc2cccc(C(=O)Nc3cccc4c3CCN(CC(F)(F)F)C4)c21

>  <HIPPO Pose ID>  (521) 
119356

>  <energy_score>  (521) 
-31.983111

>  <inchikey>  (521) 
IVLLKBQFDGTZPC-UHFFFAOYSA-N

>  <gnina_score_min>  (521) 
6.2

>  <gnina_score>  (521) 
6.108

>  <ref_mols>  (521) 
Z3746a

>  <HIPPO Compound ID>  (521) 
183843

>  <distance_score>  (521) 
0.912493

>  <rmsd(smina/fragmenstein)>  (521) 
0.345

>  <ref_pdb>  (521) 
Z3746a

>  <inspiration_score>  (521) 
None

$$$$
P119358
     RDKit          3D

 30 33  0  0  0  0  0  0  0  0999 V2000
   -9.2224    3.5077   -5.0844 C   0  0  0  0  0  0  0  0  0  0  0  0
  -10.1454    2.6847   -5.9867 C   0  0  0  0  0  0  0  0  0  0  0  0
  -10.9453    1.6980   -5.1545 C   0  0  0  0  0  0  0  0  0  0  0  0
  -11.1695    3.5548   -6.4552 O   0  0  0  0  0  0  0  0  0  0  0  0
   -9.4006    1.9189   -7.1518 C   0  0  0  0  0  0  0  0  0  0  0  0
   -8.7460    2.5828   -8.3035 N   0  0  0  0  0  0  0  0  0  0  0  0
   -9.4189    2.3610   -9.5800 C   0  0  0  0  0  0  0  0  0  0  0  0
   -8.6039    2.8670  -10.7989 C   0  0  0  0  0  0  0  0  0  0  0  0
   -8.1076    4.2825  -10.6347 C   0  0  0  0  0  0  0  0  0  0  0  0
   -8.0333    4.7714   -9.3075 C   0  0  0  0  0  0  0  0  0  0  0  0
   -7.5878    6.0736   -9.0447 C   0  0  0  0  0  0  0  0  0  0  0  0
   -7.1792    6.8914  -10.0753 C   0  0  0  0  0  0  0  0  0  0  0  0
   -7.2074    6.4082  -11.3759 C   0  0  0  0  0  0  0  0  0  0  0  0
   -7.6592    5.1145  -11.6843 C   0  0  0  0  0  0  0  0  0  0  0  0
   -7.6275    4.7566  -13.0451 N   0  0  0  0  0  0  0  0  0  0  0  0
   -7.2025    5.5825  -14.3005 C   0  0  0  0  0  0  0  0  0  0  0  0
   -6.7424    6.6574  -14.3818 O   0  0  0  0  0  0  0  0  0  0  0  0
   -7.5160    4.9459  -15.6106 C   0  0  0  0  0  0  0  0  0  0  0  0
   -8.8067    4.4248  -15.8164 C   0  0  0  0  0  0  0  0  0  0  0  0
   -9.2430    4.0472  -17.1006 C   0  0  0  0  0  0  0  0  0  0  0  0
   -8.3923    4.1413  -18.1979 C   0  0  0  0  0  0  0  0  0  0  0  0
   -7.1227    4.6338  -17.9758 C   0  0  0  0  0  0  0  0  0  0  0  0
   -6.6700    5.0727  -16.7215 C   0  0  0  0  0  0  0  0  0  0  0  0
   -5.2691    5.6478  -16.9137 C   0  0  0  0  0  0  0  0  0  0  0  0
   -4.2100    5.1957  -15.9166 C   0  0  0  0  0  0  0  0  0  0  0  0
   -5.2553    7.1834  -17.0248 C   0  0  0  0  0  0  0  0  0  0  0  0
   -4.9311    5.1618  -18.3512 C   0  0  0  0  0  0  0  0  0  0  0  0
   -3.8435    5.1929  -18.9087 O   0  0  0  0  0  0  0  0  0  0  0  0
   -6.1200    4.7460  -18.9276 N   0  0  0  0  0  0  0  0  0  0  0  0
   -8.4881    3.9886   -8.0979 C   0  0  0  0  0  0  0  0  0  0  0  0
  1  2  1  0
  2  3  1  0
  2  4  1  0
  2  5  1  0
  5  6  1  0
  6  7  1  0
  7  8  1  0
  8  9  1  0
  9 10  2  0
 10 11  1  0
 11 12  2  0
 12 13  1  0
 13 14  2  0
 14 15  1  0
 15 16  1  0
 16 17  2  0
 16 18  1  0
 18 19  2  0
 19 20  1  0
 20 21  2  0
 21 22  1  0
 22 23  2  0
 23 24  1  0
 24 25  1  0
 24 26  1  0
 24 27  1  0
 27 28  2  0
 27 29  1  0
 10 30  1  0
 30  6  1  0
 14  9  1  0
 23 18  1  0
 29 22  1  0
M  END
>  <name>  (522) 
P119358

>  <alias>  (522) 
None

>  <smina_score_min>  (522) 
-9.11

>  <exports>  (522) 
['/opt/xchem-fragalysis-2/maxwin/BulkDock/OUTPUTS/openbind_xx01zvns2b_c2_elabs_1LOUTNY.sdf', '/opt/xchem-fragalysis-2/maxwin/BulkDock/OUTPUTS/openbind_xx01zvns2b_c2_elabs_1LSYIIV.sdf']

>  <tags>  (522) 
syndirella_placed,openbind_xx01zvns2b_c2_elabs,openbind_xx01zvns2b_c2_elabs_scored_6.2plus,syndirella_product,openbind_xx01zvns2b_c2_elabs_scored,openbind_xx01zvns2b_c1_elabs_filtered,openbind_xx01zvns2b_c2_elabs_scored_top80percent,BulkDock Fragalysis export

>  <subsites>  (522) 
1 - Z4590/B/203/1

>  <smiles>  (522) 
CC(C)(O)CN1CCc2c(cccc2NC(=O)c2cccc3c2C(C)(C)C(=O)N3)C1

>  <HIPPO Pose ID>  (522) 
119358

>  <energy_score>  (522) 
-49.989595

>  <inchikey>  (522) 
NXLGEHVUQGXCCD-UHFFFAOYSA-N

>  <gnina_score_min>  (522) 
6.28

>  <gnina_score>  (522) 
6.107

>  <ref_mols>  (522) 
Z3746a

>  <HIPPO Compound ID>  (522) 
183848

>  <distance_score>  (522) 
0.868567

>  <rmsd(smina/fragmenstein)>  (522) 
0.316

>  <ref_pdb>  (522) 
Z3746a

>  <inspiration_score>  (522) 
None

$$$$
P119364
     RDKit          3D

 30 32  0  0  0  0  0  0  0  0999 V2000
   -7.6031    7.5954   -9.5270 C   0  0  0  0  0  0  0  0  0  0  0  0
   -7.8912    6.2706  -10.1677 C   0  0  0  0  0  0  0  0  0  0  0  0
   -8.0812    5.1305   -9.3786 C   0  0  0  0  0  0  0  0  0  0  0  0
   -8.3060    3.8853   -9.9759 C   0  0  0  0  0  0  0  0  0  0  0  0
   -8.2737    2.6211   -9.1590 C   0  0  0  0  0  0  0  0  0  0  0  0
   -7.3141    1.7301   -9.7506 N   0  0  0  0  0  0  0  0  0  0  0  0
   -5.7975    1.9451  -10.0854 C   0  0  0  0  0  0  0  0  0  0  0  0
   -5.0900    2.8536   -9.8567 O   0  0  0  0  0  0  0  0  0  0  0  0
   -5.3562    0.7207  -10.9252 C   0  0  0  0  0  0  0  0  0  0  0  0
   -6.1717    0.5440  -12.0091 F   0  0  0  0  0  0  0  0  0  0  0  0
   -5.4136   -0.4402  -10.2086 F   0  0  0  0  0  0  0  0  0  0  0  0
   -4.0860    0.8314  -11.3997 F   0  0  0  0  0  0  0  0  0  0  0  0
   -8.4044    3.8002  -11.3734 C   0  0  0  0  0  0  0  0  0  0  0  0
   -8.1213    4.9078  -12.1624 C   0  0  0  0  0  0  0  0  0  0  0  0
   -8.0648    4.7322  -13.5391 N   0  0  0  0  0  0  0  0  0  0  0  0
   -7.4719    5.6359  -14.6419 C   0  0  0  0  0  0  0  0  0  0  0  0
   -7.0072    6.7034  -14.5756 O   0  0  0  0  0  0  0  0  0  0  0  0
   -7.6432    5.0165  -15.9899 C   0  0  0  0  0  0  0  0  0  0  0  0
   -8.8965    4.4341  -16.2913 C   0  0  0  0  0  0  0  0  0  0  0  0
   -9.2059    3.9813  -17.5815 C   0  0  0  0  0  0  0  0  0  0  0  0
   -8.2624    4.0808  -18.5938 C   0  0  0  0  0  0  0  0  0  0  0  0
   -7.0367    4.6382  -18.2808 C   0  0  0  0  0  0  0  0  0  0  0  0
   -6.7023    5.1290  -17.0103 C   0  0  0  0  0  0  0  0  0  0  0  0
   -5.2991    5.7134  -17.0860 C   0  0  0  0  0  0  0  0  0  0  0  0
   -5.2890    7.2476  -17.1667 C   0  0  0  0  0  0  0  0  0  0  0  0
   -4.3257    5.2458  -16.0116 C   0  0  0  0  0  0  0  0  0  0  0  0
   -4.8423    5.2337  -18.4926 C   0  0  0  0  0  0  0  0  0  0  0  0
   -3.7192    5.2957  -18.9707 O   0  0  0  0  0  0  0  0  0  0  0  0
   -5.9652    4.7628  -19.1504 N   0  0  0  0  0  0  0  0  0  0  0  0
   -7.8700    6.1406  -11.5639 C   0  0  0  0  0  0  0  0  0  0  0  0
  1  2  1  0
  2  3  2  0
  3  4  1  0
  4  5  1  0
  5  6  1  0
  6  7  1  0
  7  8  2  0
  7  9  1  0
  9 10  1  0
  9 11  1  0
  9 12  1  0
  4 13  2  0
 13 14  1  0
 14 15  1  0
 15 16  1  0
 16 17  2  0
 16 18  1  0
 18 19  2  0
 19 20  1  0
 20 21  2  0
 21 22  1  0
 22 23  2  0
 23 24  1  0
 24 25  1  0
 24 26  1  0
 24 27  1  0
 27 28  2  0
 27 29  1  0
 14 30  2  0
 30  2  1  0
 23 18  1  0
 29 22  1  0
M  END
>  <name>  (523) 
P119364

>  <alias>  (523) 
None

>  <smina_score_min>  (523) 
-9.023

>  <exports>  (523) 
['/opt/xchem-fragalysis-2/maxwin/BulkDock/OUTPUTS/openbind_xx01zvns2b_c2_elabs_1LOUTNY.sdf', '/opt/xchem-fragalysis-2/maxwin/BulkDock/OUTPUTS/openbind_xx01zvns2b_c2_elabs_1LSYIIV.sdf']

>  <tags>  (523) 
syndirella_placed,openbind_xx01zvns2b_c2_elabs,openbind_xx01zvns2b_c2_elabs_scored_6.2plus,syndirella_product,openbind_xx01zvns2b_c2_elabs_scored,openbind_xx01zvns2b_c1_elabs_filtered,openbind_xx01zvns2b_c2_elabs_scored_top80percent,BulkDock Fragalysis export

>  <subsites>  (523) 
1 - Z4590/B/203/1

>  <smiles>  (523) 
Cc1cc(CNC(=O)C(F)(F)F)cc(NC(=O)c2cccc3c2C(C)(C)C(=O)N3)c1

>  <HIPPO Pose ID>  (523) 
119364

>  <energy_score>  (523) 
-10.642165

>  <inchikey>  (523) 
FQTKPDUXNSCUJS-UHFFFAOYSA-N

>  <gnina_score_min>  (523) 
6.29

>  <gnina_score>  (523) 
6.052

>  <ref_mols>  (523) 
Z3746a

>  <HIPPO Compound ID>  (523) 
183862

>  <distance_score>  (523) 
0.672166

>  <rmsd(smina/fragmenstein)>  (523) 
0.511

>  <ref_pdb>  (523) 
Z3746a

>  <inspiration_score>  (523) 
None

$$$$
P119396
     RDKit          3D

 30 32  0  0  0  0  0  0  0  0999 V2000
   -3.2140    2.9389   -9.8633 C   0  0  0  0  0  0  0  0  0  0  0  0
   -3.6525    1.7489  -10.7358 C   0  0  0  0  0  0  0  0  0  0  0  0
   -2.6366    0.6173  -10.5555 C   0  0  0  0  0  0  0  0  0  0  0  0
   -3.6396    2.1659  -12.2180 C   0  0  0  0  0  0  0  0  0  0  0  0
   -5.0550    1.2408  -10.3127 C   0  0  0  0  0  0  0  0  0  0  0  0
   -6.0367    2.2865  -10.3859 N   0  0  0  0  0  0  0  0  0  0  0  0
   -7.4066    2.4267   -9.6865 C   0  0  0  0  0  0  0  0  0  0  0  0
   -7.9162    1.7551   -8.8858 O   0  0  0  0  0  0  0  0  0  0  0  0
   -8.0456    3.6390  -10.2282 C   0  0  0  0  0  0  0  0  0  0  0  0
   -8.0389    4.8167   -9.4899 C   0  0  0  0  0  0  0  0  0  0  0  0
   -8.2000    6.0221  -10.1703 C   0  0  0  0  0  0  0  0  0  0  0  0
   -8.2826    6.0418  -11.5746 C   0  0  0  0  0  0  0  0  0  0  0  0
   -8.5393    7.5834  -12.3055 Cl  0  0  0  0  0  0  0  0  0  0  0  0
   -8.2663    4.8389  -12.2978 C   0  0  0  0  0  0  0  0  0  0  0  0
   -8.1228    4.6688  -13.6739 N   0  0  0  0  0  0  0  0  0  0  0  0
   -7.5098    5.6000  -14.7404 C   0  0  0  0  0  0  0  0  0  0  0  0
   -6.9603    6.6208  -14.6255 O   0  0  0  0  0  0  0  0  0  0  0  0
   -7.6945    5.0226  -16.1034 C   0  0  0  0  0  0  0  0  0  0  0  0
   -8.9455    4.4426  -16.4194 C   0  0  0  0  0  0  0  0  0  0  0  0
   -9.2320    3.9714  -17.7061 C   0  0  0  0  0  0  0  0  0  0  0  0
   -8.2682    4.0554  -18.6998 C   0  0  0  0  0  0  0  0  0  0  0  0
   -7.0486    4.6207  -18.3754 C   0  0  0  0  0  0  0  0  0  0  0  0
   -6.7341    5.1238  -17.1061 C   0  0  0  0  0  0  0  0  0  0  0  0
   -5.3283    5.7051  -17.1640 C   0  0  0  0  0  0  0  0  0  0  0  0
   -4.3616    5.2402  -16.0815 C   0  0  0  0  0  0  0  0  0  0  0  0
   -5.3168    7.2391  -17.2488 C   0  0  0  0  0  0  0  0  0  0  0  0
   -4.8530    5.2202  -18.5619 C   0  0  0  0  0  0  0  0  0  0  0  0
   -3.7232    5.2818  -19.0238 O   0  0  0  0  0  0  0  0  0  0  0  0
   -5.9648    4.7397  -19.2302 N   0  0  0  0  0  0  0  0  0  0  0  0
   -8.2613    3.6353  -11.6035 C   0  0  0  0  0  0  0  0  0  0  0  0
  1  2  1  0
  2  3  1  0
  2  4  1  0
  2  5  1  0
  5  6  1  0
  6  7  1  0
  7  8  2  0
  7  9  1  0
  9 10  2  0
 10 11  1  0
 11 12  2  0
 12 13  1  0
 12 14  1  0
 14 15  1  0
 15 16  1  0
 16 17  2  0
 16 18  1  0
 18 19  2  0
 19 20  1  0
 20 21  2  0
 21 22  1  0
 22 23  2  0
 23 24  1  0
 24 25  1  0
 24 26  1  0
 24 27  1  0
 27 28  2  0
 27 29  1  0
 14 30  2  0
 30  9  1  0
 23 18  1  0
 29 22  1  0
M  END
>  <name>  (524) 
P119396

>  <alias>  (524) 
None

>  <smina_score_min>  (524) 
-8.64

>  <exports>  (524) 
['/opt/xchem-fragalysis-2/maxwin/BulkDock/OUTPUTS/openbind_xx01zvns2b_c2_elabs_1LOUTNY.sdf', '/opt/xchem-fragalysis-2/maxwin/BulkDock/OUTPUTS/openbind_xx01zvns2b_c2_elabs_1LSYIIV.sdf']

>  <tags>  (524) 
syndirella_placed,openbind_xx01zvns2b_c2_elabs,openbind_xx01zvns2b_c2_elabs_scored_6.2plus,syndirella_product,openbind_xx01zvns2b_c2_elabs_scored,openbind_xx01zvns2b_c1_elabs_filtered,openbind_xx01zvns2b_c2_elabs_scored_top80percent,BulkDock Fragalysis export

>  <subsites>  (524) 
1 - Z4590/B/203/1

>  <smiles>  (524) 
CC(C)(C)CNC(=O)c1ccc(Cl)c(NC(=O)c2cccc3c2C(C)(C)C(=O)N3)c1

>  <HIPPO Pose ID>  (524) 
119396

>  <energy_score>  (524) 
-15.933599

>  <inchikey>  (524) 
OOYJYROGCFHZQE-UHFFFAOYSA-N

>  <gnina_score_min>  (524) 
6.513

>  <gnina_score>  (524) 
6.472

>  <ref_mols>  (524) 
Z3746a

>  <HIPPO Compound ID>  (524) 
183904

>  <distance_score>  (524) 
0.990955

>  <rmsd(smina/fragmenstein)>  (524) 
0.432

>  <ref_pdb>  (524) 
Z3746a

>  <inspiration_score>  (524) 
None

$$$$
P119425
     RDKit          3D

 31 35  0  0  0  0  0  0  0  0999 V2000
   -5.2988    7.2482  -17.2436 C   0  0  0  0  0  0  0  0  0  0  0  0
   -5.2894    5.7140  -17.1753 C   0  0  0  0  0  0  0  0  0  0  0  0
   -4.3137    5.2521  -16.1004 C   0  0  0  0  0  0  0  0  0  0  0  0
   -4.8279    5.2428  -18.5821 C   0  0  0  0  0  0  0  0  0  0  0  0
   -3.7046    5.3168  -19.0577 O   0  0  0  0  0  0  0  0  0  0  0  0
   -5.9456    4.7597  -19.2412 N   0  0  0  0  0  0  0  0  0  0  0  0
   -7.0164    4.6232  -18.3722 C   0  0  0  0  0  0  0  0  0  0  0  0
   -8.2383    4.0526  -18.6796 C   0  0  0  0  0  0  0  0  0  0  0  0
   -9.1804    3.9429  -17.6659 C   0  0  0  0  0  0  0  0  0  0  0  0
   -8.8716    4.3968  -16.3781 C   0  0  0  0  0  0  0  0  0  0  0  0
   -7.6219    4.9920  -16.0880 C   0  0  0  0  0  0  0  0  0  0  0  0
   -7.4549    5.6012  -14.7433 C   0  0  0  0  0  0  0  0  0  0  0  0
   -7.0909    6.7042  -14.6627 O   0  0  0  0  0  0  0  0  0  0  0  0
   -7.9166    4.6214  -13.6516 N   0  0  0  0  0  0  0  0  0  0  0  0
   -8.1104    4.8132  -12.2955 C   0  0  0  0  0  0  0  0  0  0  0  0
   -8.1771    6.0863  -11.7327 C   0  0  0  0  0  0  0  0  0  0  0  0
   -8.3432    6.2326  -10.3554 C   0  0  0  0  0  0  0  0  0  0  0  0
   -8.3509    5.1074   -9.5359 C   0  0  0  0  0  0  0  0  0  0  0  0
   -8.1894    3.8352  -10.0991 C   0  0  0  0  0  0  0  0  0  0  0  0
   -7.7256    2.6742   -9.2571 C   0  0  0  0  0  0  0  0  0  0  0  0
   -6.3108    2.4297   -9.5703 N   0  0  0  0  0  0  0  0  0  0  0  0
   -5.8125    1.3019  -10.1684 C   0  0  0  0  0  0  0  0  0  0  0  0
   -4.5157    1.3583  -10.3633 N   0  0  0  0  0  0  0  0  0  0  0  0
   -4.1408    2.5820   -9.8845 C   0  0  0  0  0  0  0  0  0  0  0  0
   -2.8606    3.1563   -9.8446 C   0  0  0  0  0  0  0  0  0  0  0  0
   -2.7031    4.4255   -9.2796 C   0  0  0  0  0  0  0  0  0  0  0  0
   -3.7999    5.1055   -8.7530 C   0  0  0  0  0  0  0  0  0  0  0  0
   -5.0832    4.5455   -8.7807 C   0  0  0  0  0  0  0  0  0  0  0  0
   -5.2321    3.2820   -9.3709 C   0  0  0  0  0  0  0  0  0  0  0  0
   -8.1838    3.6870  -11.4904 C   0  0  0  0  0  0  0  0  0  0  0  0
   -6.6844    5.1165  -17.1048 C   0  0  0  0  0  0  0  0  0  0  0  0
  1  2  1  0
  2  3  1  0
  2  4  1  0
  4  5  2  0
  4  6  1  0
  6  7  1  0
  7  8  2  0
  8  9  1  0
  9 10  2  0
 10 11  1  0
 11 12  1  0
 12 13  2  0
 12 14  1  0
 14 15  1  0
 15 16  2  0
 16 17  1  0
 17 18  2  0
 18 19  1  0
 19 20  1  0
 20 21  1  0
 21 22  1  0
 22 23  2  0
 23 24  1  0
 24 25  2  0
 25 26  1  0
 26 27  2  0
 27 28  1  0
 28 29  2  0
 19 30  2  0
 11 31  2  0
 31  2  1  0
 31  7  1  0
 30 15  1  0
 29 21  1  0
 29 24  1  0
M  END
>  <name>  (525) 
P119425

>  <alias>  (525) 
None

>  <smina_score_min>  (525) 
-8.157

>  <exports>  (525) 
['/opt/xchem-fragalysis-2/maxwin/BulkDock/OUTPUTS/openbind_xx01zvns2b_c2_elabs_1LOUTNY.sdf', '/opt/xchem-fragalysis-2/maxwin/BulkDock/OUTPUTS/openbind_xx01zvns2b_c2_elabs_1LSYIIV.sdf']

>  <tags>  (525) 
syndirella_placed,openbind_xx01zvns2b_c2_elabs,openbind_xx01zvns2b_c2_elabs_scored_6.2plus,syndirella_product,openbind_xx01zvns2b_c2_elabs_scored,openbind_xx01zvns2b_c1_elabs_filtered,openbind_xx01zvns2b_c2_elabs_scored_top80percent,BulkDock Fragalysis export

>  <subsites>  (525) 
1 - Z4590/B/203/1

>  <smiles>  (525) 
CC1(C)C(=O)Nc2cccc(C(=O)Nc3cccc(Cn4cnc5ccccc54)c3)c21

>  <HIPPO Pose ID>  (525) 
119425

>  <energy_score>  (525) 
-6.572752

>  <inchikey>  (525) 
VMIKCUNWMOFIAR-UHFFFAOYSA-N

>  <gnina_score_min>  (525) 
6.5

>  <gnina_score>  (525) 
6.498

>  <ref_mols>  (525) 
Z3746a

>  <HIPPO Compound ID>  (525) 
183963

>  <distance_score>  (525) 
0.879436

>  <rmsd(smina/fragmenstein)>  (525) 
0.817

>  <ref_pdb>  (525) 
Z3746a

>  <inspiration_score>  (525) 
None

$$$$
P119429
     RDKit          3D

 31 33  0  0  0  0  0  0  0  0999 V2000
   -3.4490    2.6912  -11.9169 C   0  0  0  0  0  0  0  0  0  0  0  0
   -3.3865    1.9733  -10.5634 C   0  0  0  0  0  0  0  0  0  0  0  0
   -2.6140    2.7878   -9.5137 C   0  0  0  0  0  0  0  0  0  0  0  0
   -2.6506    0.6455  -10.7448 C   0  0  0  0  0  0  0  0  0  0  0  0
   -4.7234    1.6036  -10.1290 O   0  0  0  0  0  0  0  0  0  0  0  0
   -5.5964    2.5894   -9.7800 C   0  0  0  0  0  0  0  0  0  0  0  0
   -5.2932    3.7051   -9.6788 O   0  0  0  0  0  0  0  0  0  0  0  0
   -6.9601    1.9210   -9.6592 N   0  0  0  0  0  0  0  0  0  0  0  0
   -8.2397    2.4667   -9.2931 C   0  0  0  0  0  0  0  0  0  0  0  0
   -8.4166    3.7487  -10.0655 C   0  0  0  0  0  0  0  0  0  0  0  0
   -8.3187    4.9913   -9.4293 C   0  0  0  0  0  0  0  0  0  0  0  0
   -8.1581    6.1463  -10.1912 C   0  0  0  0  0  0  0  0  0  0  0  0
   -8.0508    6.0566  -11.5788 C   0  0  0  0  0  0  0  0  0  0  0  0
   -7.8921    7.1981  -12.2611 F   0  0  0  0  0  0  0  0  0  0  0  0
   -8.1535    4.8246  -12.2267 C   0  0  0  0  0  0  0  0  0  0  0  0
   -7.9645    4.6216  -13.5926 N   0  0  0  0  0  0  0  0  0  0  0  0
   -7.4598    5.5836  -14.6886 C   0  0  0  0  0  0  0  0  0  0  0  0
   -7.0506    6.6718  -14.6085 O   0  0  0  0  0  0  0  0  0  0  0  0
   -7.6451    4.9911  -16.0415 C   0  0  0  0  0  0  0  0  0  0  0  0
   -8.9010    4.4165  -16.3437 C   0  0  0  0  0  0  0  0  0  0  0  0
   -9.2088    3.9688  -17.6350 C   0  0  0  0  0  0  0  0  0  0  0  0
   -8.2614    4.0686  -18.6444 C   0  0  0  0  0  0  0  0  0  0  0  0
   -7.0356    4.6258  -18.3297 C   0  0  0  0  0  0  0  0  0  0  0  0
   -6.7033    5.1106  -17.0580 C   0  0  0  0  0  0  0  0  0  0  0  0
   -5.3028    5.6998  -17.1260 C   0  0  0  0  0  0  0  0  0  0  0  0
   -5.3021    7.2342  -17.2001 C   0  0  0  0  0  0  0  0  0  0  0  0
   -4.3295    5.2369  -16.0492 C   0  0  0  0  0  0  0  0  0  0  0  0
   -4.8409    5.2253  -18.5322 C   0  0  0  0  0  0  0  0  0  0  0  0
   -3.7154    5.2874  -19.0045 O   0  0  0  0  0  0  0  0  0  0  0  0
   -5.9615    4.7552  -19.1957 N   0  0  0  0  0  0  0  0  0  0  0  0
   -8.4063    3.6843  -11.4680 C   0  0  0  0  0  0  0  0  0  0  0  0
  1  2  1  0
  2  3  1  0
  2  4  1  0
  2  5  1  0
  5  6  1  0
  6  7  2  0
  6  8  1  0
  8  9  1  0
  9 10  1  0
 10 11  2  0
 11 12  1  0
 12 13  2  0
 13 14  1  0
 13 15  1  0
 15 16  1  0
 16 17  1  0
 17 18  2  0
 17 19  1  0
 19 20  2  0
 20 21  1  0
 21 22  2  0
 22 23  1  0
 23 24  2  0
 24 25  1  0
 25 26  1  0
 25 27  1  0
 25 28  1  0
 28 29  2  0
 28 30  1  0
 15 31  2  0
 31 10  1  0
 24 19  1  0
 30 23  1  0
M  END
>  <name>  (526) 
P119429

>  <alias>  (526) 
None

>  <smina_score_min>  (526) 
-8.338

>  <exports>  (526) 
['/opt/xchem-fragalysis-2/maxwin/BulkDock/OUTPUTS/openbind_xx01zvns2b_c2_elabs_1LOUTNY.sdf', '/opt/xchem-fragalysis-2/maxwin/BulkDock/OUTPUTS/openbind_xx01zvns2b_c2_elabs_1LSYIIV.sdf']

>  <tags>  (526) 
syndirella_placed,openbind_xx01zvns2b_c2_elabs,openbind_xx01zvns2b_c2_elabs_scored_6.2plus,syndirella_product,openbind_xx01zvns2b_c2_elabs_scored,openbind_xx01zvns2b_c1_elabs_filtered,openbind_xx01zvns2b_c2_elabs_scored_top80percent,BulkDock Fragalysis export

>  <subsites>  (526) 
1 - Z4590/B/203/1

>  <smiles>  (526) 
CC(C)(C)OC(=O)NCc1ccc(F)c(NC(=O)c2cccc3c2C(C)(C)C(=O)N3)c1

>  <HIPPO Pose ID>  (526) 
119429

>  <energy_score>  (526) 
-26.722514

>  <inchikey>  (526) 
HIKQEXQQEMKBMF-UHFFFAOYSA-N

>  <gnina_score_min>  (526) 
6.516

>  <gnina_score>  (526) 
6.451

>  <ref_mols>  (526) 
Z3746a

>  <HIPPO Compound ID>  (526) 
183976

>  <distance_score>  (526) 
0.70742

>  <rmsd(smina/fragmenstein)>  (526) 
1.053

>  <ref_pdb>  (526) 
Z3746a

>  <inspiration_score>  (526) 
None

$$$$
P119435
     RDKit          3D

 31 34  0  0  0  0  0  0  0  0999 V2000
   -4.0267    0.8126  -10.3415 C   0  0  0  0  0  0  0  0  0  0  0  0
   -4.7178    2.1063  -10.7308 C   0  0  0  0  0  0  0  0  0  0  0  0
   -4.1977    2.6653  -12.0458 C   0  0  0  0  0  0  0  0  0  0  0  0
   -4.5109    3.0742   -9.7009 O   0  0  0  0  0  0  0  0  0  0  0  0
   -5.7190    3.3710   -9.1313 C   0  0  0  0  0  0  0  0  0  0  0  0
   -5.8247    4.2885   -8.3274 O   0  0  0  0  0  0  0  0  0  0  0  0
   -6.6974    2.5677   -9.6303 N   0  0  0  0  0  0  0  0  0  0  0  0
   -8.1159    2.8051   -9.3549 C   0  0  0  0  0  0  0  0  0  0  0  0
   -8.5010    4.0456  -10.1352 C   0  0  0  0  0  0  0  0  0  0  0  0
   -8.3699    5.3155   -9.5594 C   0  0  0  0  0  0  0  0  0  0  0  0
   -8.1989    6.4305  -10.3758 C   0  0  0  0  0  0  0  0  0  0  0  0
   -8.1127    6.2706  -11.7594 C   0  0  0  0  0  0  0  0  0  0  0  0
   -8.2988    5.0123  -12.3248 C   0  0  0  0  0  0  0  0  0  0  0  0
   -8.0868    4.7591  -13.6682 N   0  0  0  0  0  0  0  0  0  0  0  0
   -7.4705    5.6429  -14.7672 C   0  0  0  0  0  0  0  0  0  0  0  0
   -6.9738    6.6943  -14.7005 O   0  0  0  0  0  0  0  0  0  0  0  0
   -7.6497    5.0172  -16.1083 C   0  0  0  0  0  0  0  0  0  0  0  0
   -8.9009    4.4273  -16.4060 C   0  0  0  0  0  0  0  0  0  0  0  0
   -9.2010    3.9544  -17.6894 C   0  0  0  0  0  0  0  0  0  0  0  0
   -8.2508    4.0438  -18.6962 C   0  0  0  0  0  0  0  0  0  0  0  0
   -7.0291    4.6125  -18.3865 C   0  0  0  0  0  0  0  0  0  0  0  0
   -6.7029    5.1197  -17.1223 C   0  0  0  0  0  0  0  0  0  0  0  0
   -5.3027    5.7098  -17.1956 C   0  0  0  0  0  0  0  0  0  0  0  0
   -5.3009    7.2435  -17.2932 C   0  0  0  0  0  0  0  0  0  0  0  0
   -4.3285    5.2565  -16.1150 C   0  0  0  0  0  0  0  0  0  0  0  0
   -4.8370    5.2176  -18.5936 C   0  0  0  0  0  0  0  0  0  0  0  0
   -3.7104    5.2781  -19.0639 O   0  0  0  0  0  0  0  0  0  0  0  0
   -5.9537    4.7339  -19.2520 N   0  0  0  0  0  0  0  0  0  0  0  0
   -8.5997    3.9232  -11.5234 C   0  0  0  0  0  0  0  0  0  0  0  0
   -6.2190    1.9499  -10.7465 C   0  0  0  0  0  0  0  0  0  0  0  0
   -6.8402    1.4358  -11.6674 O   0  0  0  0  0  0  0  0  0  0  0  0
  1  2  1  0
  2  3  1  0
  2  4  1  0
  4  5  1  0
  5  6  2  0
  5  7  1  0
  7  8  1  0
  8  9  1  0
  9 10  2  0
 10 11  1  0
 11 12  2  0
 12 13  1  0
 13 14  1  0
 14 15  1  0
 15 16  2  0
 15 17  1  0
 17 18  2  0
 18 19  1  0
 19 20  2  0
 20 21  1  0
 21 22  2  0
 22 23  1  0
 23 24  1  0
 23 25  1  0
 23 26  1  0
 26 27  2  0
 26 28  1  0
 13 29  2  0
  7 30  1  0
 30 31  2  0
 30  2  1  0
 29  9  1  0
 22 17  1  0
 28 21  1  0
M  END
>  <name>  (527) 
P119435

>  <alias>  (527) 
None

>  <smina_score_min>  (527) 
-8.939

>  <exports>  (527) 
['/opt/xchem-fragalysis-2/maxwin/BulkDock/OUTPUTS/openbind_xx01zvns2b_c2_elabs_1LOUTNY.sdf', '/opt/xchem-fragalysis-2/maxwin/BulkDock/OUTPUTS/openbind_xx01zvns2b_c2_elabs_1LSYIIV.sdf']

>  <tags>  (527) 
syndirella_placed,openbind_xx01zvns2b_c2_elabs,openbind_xx01zvns2b_c2_elabs_scored_6.2plus,syndirella_product,openbind_xx01zvns2b_c2_elabs_scored,openbind_xx01zvns2b_c1_elabs_filtered,openbind_xx01zvns2b_c2_elabs_scored_top80percent,BulkDock Fragalysis export

>  <subsites>  (527) 
1 - Z4590/B/203/1

>  <smiles>  (527) 
CC1(C)OC(=O)N(Cc2cccc(NC(=O)c3cccc4c3C(C)(C)C(=O)N4)c2)C1=O

>  <HIPPO Pose ID>  (527) 
119435

>  <energy_score>  (527) 
-16.317808

>  <inchikey>  (527) 
SCTKGCYMDHRWLL-UHFFFAOYSA-N

>  <gnina_score_min>  (527) 
6.428

>  <gnina_score>  (527) 
6.276

>  <ref_mols>  (527) 
Z3746a

>  <HIPPO Compound ID>  (527) 
183988

>  <distance_score>  (527) 
0.827835

>  <rmsd(smina/fragmenstein)>  (527) 
0.722

>  <ref_pdb>  (527) 
Z3746a

>  <inspiration_score>  (527) 
None

$$$$
P119442
     RDKit          3D

 31 33  0  0  0  0  0  0  0  0999 V2000
   -8.4710    2.6558  -11.8495 C   0  0  0  0  0  0  0  0  0  0  0  0
   -8.2333    4.0656  -11.3904 C   0  0  0  0  0  0  0  0  0  0  0  0
   -8.0441    4.3041  -10.0160 C   0  0  0  0  0  0  0  0  0  0  0  0
   -7.6887    3.1637   -9.1155 C   0  0  0  0  0  0  0  0  0  0  0  0
   -6.2633    2.9466   -9.1371 N   0  0  0  0  0  0  0  0  0  0  0  0
   -5.3079    2.7620  -10.3071 C   0  0  0  0  0  0  0  0  0  0  0  0
   -5.4953    2.8299  -11.4496 O   0  0  0  0  0  0  0  0  0  0  0  0
   -4.1086    2.4615   -9.7339 O   0  0  0  0  0  0  0  0  0  0  0  0
   -2.9615    2.1380  -10.5613 C   0  0  0  0  0  0  0  0  0  0  0  0
   -2.5365    3.3356  -11.4192 C   0  0  0  0  0  0  0  0  0  0  0  0
   -1.8353    1.8265   -9.5638 C   0  0  0  0  0  0  0  0  0  0  0  0
   -3.2182    0.8893  -11.4108 C   0  0  0  0  0  0  0  0  0  0  0  0
   -7.9112    5.6110   -9.5249 C   0  0  0  0  0  0  0  0  0  0  0  0
   -7.8725    6.6807  -10.4049 C   0  0  0  0  0  0  0  0  0  0  0  0
   -7.9169    6.4408  -11.7752 C   0  0  0  0  0  0  0  0  0  0  0  0
   -8.0903    5.1445  -12.2690 C   0  0  0  0  0  0  0  0  0  0  0  0
   -8.0373    4.9201  -13.6392 N   0  0  0  0  0  0  0  0  0  0  0  0
   -7.4078    5.7568  -14.7645 C   0  0  0  0  0  0  0  0  0  0  0  0
   -6.9008    6.8043  -14.7330 O   0  0  0  0  0  0  0  0  0  0  0  0
   -7.6062    5.0885  -16.0862 C   0  0  0  0  0  0  0  0  0  0  0  0
   -8.8607    4.4904  -16.3562 C   0  0  0  0  0  0  0  0  0  0  0  0
   -9.1783    3.9911  -17.6266 C   0  0  0  0  0  0  0  0  0  0  0  0
   -8.2431    4.0613  -18.6491 C   0  0  0  0  0  0  0  0  0  0  0  0
   -7.0160    4.6313  -18.3650 C   0  0  0  0  0  0  0  0  0  0  0  0
   -6.6727    5.1623  -17.1147 C   0  0  0  0  0  0  0  0  0  0  0  0
   -5.2701    5.7412  -17.2144 C   0  0  0  0  0  0  0  0  0  0  0  0
   -5.2583    7.2736  -17.3351 C   0  0  0  0  0  0  0  0  0  0  0  0
   -4.2890    5.2895  -16.1391 C   0  0  0  0  0  0  0  0  0  0  0  0
   -4.8247    5.2250  -18.6100 C   0  0  0  0  0  0  0  0  0  0  0  0
   -3.7047    5.2755  -19.0969 O   0  0  0  0  0  0  0  0  0  0  0  0
   -5.9513    4.7340  -19.2457 N   0  0  0  0  0  0  0  0  0  0  0  0
  1  2  1  0
  2  3  2  0
  3  4  1  0
  4  5  1  0
  5  6  1  0
  6  7  2  0
  6  8  1  0
  8  9  1  0
  9 10  1  0
  9 11  1  0
  9 12  1  0
  3 13  1  0
 13 14  2  0
 14 15  1  0
 15 16  2  0
 16 17  1  0
 17 18  1  0
 18 19  2  0
 18 20  1  0
 20 21  2  0
 21 22  1  0
 22 23  2  0
 23 24  1  0
 24 25  2  0
 25 26  1  0
 26 27  1  0
 26 28  1  0
 26 29  1  0
 29 30  2  0
 29 31  1  0
 16  2  1  0
 25 20  1  0
 31 24  1  0
M  END
>  <name>  (528) 
P119442

>  <alias>  (528) 
None

>  <smina_score_min>  (528) 
-8.023

>  <exports>  (528) 
['/opt/xchem-fragalysis-2/maxwin/BulkDock/OUTPUTS/openbind_xx01zvns2b_c2_elabs_1LOUTNY.sdf', '/opt/xchem-fragalysis-2/maxwin/BulkDock/OUTPUTS/openbind_xx01zvns2b_c2_elabs_1LSYIIV.sdf']

>  <tags>  (528) 
syndirella_placed,openbind_xx01zvns2b_c2_elabs,openbind_xx01zvns2b_c2_elabs_scored_6.2plus,syndirella_product,openbind_xx01zvns2b_c2_elabs_scored,openbind_xx01zvns2b_c1_elabs_filtered,openbind_xx01zvns2b_c2_elabs_scored_top80percent,BulkDock Fragalysis export

>  <subsites>  (528) 
1 - Z4590/B/203/1

>  <smiles>  (528) 
Cc1c(CNC(=O)OC(C)(C)C)cccc1NC(=O)c1cccc2c1C(C)(C)C(=O)N2

>  <HIPPO Pose ID>  (528) 
119442

>  <energy_score>  (528) 
-21.284592

>  <inchikey>  (528) 
RXENZZNUFIWYIC-UHFFFAOYSA-N

>  <gnina_score_min>  (528) 
6.335

>  <gnina_score>  (528) 
6.409

>  <ref_mols>  (528) 
Z3746a

>  <HIPPO Compound ID>  (528) 
184006

>  <distance_score>  (528) 
0.97088

>  <rmsd(smina/fragmenstein)>  (528) 
0.835

>  <ref_pdb>  (528) 
Z3746a

>  <inspiration_score>  (528) 
None

$$$$
P119443
     RDKit          3D

 31 34  0  0  0  0  0  0  0  0999 V2000
   -5.3087    7.2568  -17.2716 C   0  0  0  0  0  0  0  0  0  0  0  0
   -5.3186    5.7233  -17.1859 C   0  0  0  0  0  0  0  0  0  0  0  0
   -4.3549    5.2597  -16.1004 C   0  0  0  0  0  0  0  0  0  0  0  0
   -4.8470    5.2335  -18.5830 C   0  0  0  0  0  0  0  0  0  0  0  0
   -3.7188    5.2970  -19.0483 O   0  0  0  0  0  0  0  0  0  0  0  0
   -5.9602    4.7465  -19.2450 N   0  0  0  0  0  0  0  0  0  0  0  0
   -7.0406    4.6284  -18.3856 C   0  0  0  0  0  0  0  0  0  0  0  0
   -8.2597    4.0554  -18.6986 C   0  0  0  0  0  0  0  0  0  0  0  0
   -9.2155    3.9674  -17.6966 C   0  0  0  0  0  0  0  0  0  0  0  0
   -8.9229    4.4456  -16.4139 C   0  0  0  0  0  0  0  0  0  0  0  0
   -7.6752    5.0411  -16.1151 C   0  0  0  0  0  0  0  0  0  0  0  0
   -7.4934    5.6357  -14.7613 C   0  0  0  0  0  0  0  0  0  0  0  0
   -7.0242    6.6958  -14.6576 O   0  0  0  0  0  0  0  0  0  0  0  0
   -8.0200    4.6692  -13.6873 N   0  0  0  0  0  0  0  0  0  0  0  0
   -8.1618    4.8344  -12.3223 C   0  0  0  0  0  0  0  0  0  0  0  0
   -8.0107    6.0631  -11.6824 C   0  0  0  0  0  0  0  0  0  0  0  0
   -7.9613    6.1219  -10.2831 C   0  0  0  0  0  0  0  0  0  0  0  0
   -7.9502    4.9434   -9.5344 C   0  0  0  0  0  0  0  0  0  0  0  0
   -7.6605    5.0502   -7.8408 Cl  0  0  0  0  0  0  0  0  0  0  0  0
   -8.0770    3.7304  -10.2072 C   0  0  0  0  0  0  0  0  0  0  0  0
   -7.5542    2.4696   -9.6551 C   0  0  0  0  0  0  0  0  0  0  0  0
   -8.1392    1.8575   -8.8564 O   0  0  0  0  0  0  0  0  0  0  0  0
   -6.2376    2.1449  -10.4017 N   0  0  0  0  0  0  0  0  0  0  0  0
   -5.3307    1.0527  -10.2494 C   0  0  0  0  0  0  0  0  0  0  0  0
   -3.9410    1.6079  -10.2909 C   0  0  0  0  0  0  0  0  0  0  0  0
   -3.3750    2.5520   -9.4527 C   0  0  0  0  0  0  0  0  0  0  0  0
   -2.0230    2.8425   -9.7893 C   0  0  0  0  0  0  0  0  0  0  0  0
   -1.5987    2.1145  -10.8774 C   0  0  0  0  0  0  0  0  0  0  0  0
   -2.8287    1.0975  -11.4899 S   0  0  0  0  0  0  0  0  0  0  0  0
   -8.3106    3.6780  -11.5820 C   0  0  0  0  0  0  0  0  0  0  0  0
   -6.7220    5.1411  -17.1220 C   0  0  0  0  0  0  0  0  0  0  0  0
  1  2  1  0
  2  3  1  0
  2  4  1  0
  4  5  2  0
  4  6  1  0
  6  7  1  0
  7  8  2  0
  8  9  1  0
  9 10  2  0
 10 11  1  0
 11 12  1  0
 12 13  2  0
 12 14  1  0
 14 15  1  0
 15 16  2  0
 16 17  1  0
 17 18  2  0
 18 19  1  0
 18 20  1  0
 20 21  1  0
 21 22  2  0
 21 23  1  0
 23 24  1  0
 24 25  1  0
 25 26  2  0
 26 27  1  0
 27 28  2  0
 28 29  1  0
 20 30  2  0
 11 31  2  0
 31  2  1  0
 31  7  1  0
 30 15  1  0
 29 25  1  0
M  END
>  <name>  (529) 
P119443

>  <alias>  (529) 
None

>  <smina_score_min>  (529) 
-8.847

>  <exports>  (529) 
['/opt/xchem-fragalysis-2/maxwin/BulkDock/OUTPUTS/openbind_xx01zvns2b_c2_elabs_1LOUTNY.sdf', '/opt/xchem-fragalysis-2/maxwin/BulkDock/OUTPUTS/openbind_xx01zvns2b_c2_elabs_1LSYIIV.sdf']

>  <tags>  (529) 
syndirella_placed,openbind_xx01zvns2b_c2_elabs,openbind_xx01zvns2b_c2_elabs_scored_6.2plus,syndirella_product,openbind_xx01zvns2b_c2_elabs_scored,openbind_xx01zvns2b_c1_elabs_filtered,openbind_xx01zvns2b_c2_elabs_scored_top80percent,BulkDock Fragalysis export

>  <subsites>  (529) 
1 - Z4590/B/203/1

>  <smiles>  (529) 
CC1(C)C(=O)Nc2cccc(C(=O)Nc3ccc(Cl)c(C(=O)NCc4cccs4)c3)c21

>  <HIPPO Pose ID>  (529) 
119443

>  <energy_score>  (529) 
-4.593586

>  <inchikey>  (529) 
QWKVRTUHVHYFOG-UHFFFAOYSA-N

>  <gnina_score_min>  (529) 
6.517

>  <gnina_score>  (529) 
6.404

>  <ref_mols>  (529) 
Z3746a

>  <HIPPO Compound ID>  (529) 
184007

>  <distance_score>  (529) 
0.960302

>  <rmsd(smina/fragmenstein)>  (529) 
0.315

>  <ref_pdb>  (529) 
Z3746a

>  <inspiration_score>  (529) 
None

$$$$
P119446
     RDKit          3D

 31 34  0  0  0  0  0  0  0  0999 V2000
   -9.4647    1.4958   -7.9735 C   0  0  0  0  0  0  0  0  0  0  0  0
   -8.9580    2.5676   -8.7642 N   0  0  0  0  0  0  0  0  0  0  0  0
   -8.8547    4.0602   -8.4626 C   0  0  0  0  0  0  0  0  0  0  0  0
   -9.2358    4.6741   -7.5506 O   0  0  0  0  0  0  0  0  0  0  0  0
   -8.1521    4.8233   -9.5378 C   0  0  0  0  0  0  0  0  0  0  0  0
   -7.4750    5.9501   -9.0846 C   0  0  0  0  0  0  0  0  0  0  0  0
   -6.8984    6.8206   -9.9884 C   0  0  0  0  0  0  0  0  0  0  0  0
   -6.9631    6.5970  -11.3739 C   0  0  0  0  0  0  0  0  0  0  0  0
   -6.4295    7.5841  -12.2046 N   0  0  0  0  0  0  0  0  0  0  0  0
   -7.3375    8.7150  -12.4497 C   0  0  0  0  0  0  0  0  0  0  0  0
   -6.7148    9.7618  -13.3755 C   0  0  0  0  0  0  0  0  0  0  0  0
   -5.2753   10.6090  -12.6275 S   0  0  0  0  0  0  0  0  0  0  0  0
   -4.6656    9.2516  -11.5624 C   0  0  0  0  0  0  0  0  0  0  0  0
   -4.9866    7.8544  -12.0985 C   0  0  0  0  0  0  0  0  0  0  0  0
   -7.6099    5.4291  -11.8540 C   0  0  0  0  0  0  0  0  0  0  0  0
   -7.7270    5.0704  -13.2239 N   0  0  0  0  0  0  0  0  0  0  0  0
   -7.1224    5.7330  -14.4985 C   0  0  0  0  0  0  0  0  0  0  0  0
   -6.5015    6.7169  -14.6192 O   0  0  0  0  0  0  0  0  0  0  0  0
   -7.4791    5.0514  -15.7782 C   0  0  0  0  0  0  0  0  0  0  0  0
   -8.7706    4.5133  -15.9463 C   0  0  0  0  0  0  0  0  0  0  0  0
   -9.2175    4.0690  -17.2049 C   0  0  0  0  0  0  0  0  0  0  0  0
   -8.3794    4.1214  -18.3142 C   0  0  0  0  0  0  0  0  0  0  0  0
   -7.1096    4.6294  -18.1299 C   0  0  0  0  0  0  0  0  0  0  0  0
   -6.6430    5.1211  -16.9012 C   0  0  0  0  0  0  0  0  0  0  0  0
   -5.2436    5.6876  -17.1325 C   0  0  0  0  0  0  0  0  0  0  0  0
   -5.2300    7.2201  -17.2960 C   0  0  0  0  0  0  0  0  0  0  0  0
   -4.1611    5.2502  -16.1517 C   0  0  0  0  0  0  0  0  0  0  0  0
   -4.9273    5.1554  -18.5559 C   0  0  0  0  0  0  0  0  0  0  0  0
   -3.8463    5.1701  -19.1267 O   0  0  0  0  0  0  0  0  0  0  0  0
   -6.1202    4.7107  -19.0981 N   0  0  0  0  0  0  0  0  0  0  0  0
   -8.2143    4.5515  -10.9184 C   0  0  0  0  0  0  0  0  0  0  0  0
  1  2  1  0
  2  3  1  0
  3  4  2  0
  3  5  1  0
  5  6  2  0
  6  7  1  0
  7  8  2  0
  8  9  1  0
  9 10  1  0
 10 11  1  0
 11 12  1  0
 12 13  1  0
 13 14  1  0
  8 15  1  0
 15 16  1  0
 16 17  1  0
 17 18  2  0
 17 19  1  0
 19 20  2  0
 20 21  1  0
 21 22  2  0
 22 23  1  0
 23 24  2  0
 24 25  1  0
 25 26  1  0
 25 27  1  0
 25 28  1  0
 28 29  2  0
 28 30  1  0
 15 31  2  0
 31  5  1  0
 14  9  1  0
 24 19  1  0
 30 23  1  0
M  END
>  <name>  (530) 
P119446

>  <alias>  (530) 
None

>  <smina_score_min>  (530) 
-8.867

>  <exports>  (530) 
['/opt/xchem-fragalysis-2/maxwin/BulkDock/OUTPUTS/openbind_xx01zvns2b_c2_elabs_1LOUTNY.sdf', '/opt/xchem-fragalysis-2/maxwin/BulkDock/OUTPUTS/openbind_xx01zvns2b_c2_elabs_1LSYIIV.sdf']

>  <tags>  (530) 
syndirella_placed,openbind_xx01zvns2b_c2_elabs,openbind_xx01zvns2b_c2_elabs_scored_6.2plus,syndirella_product,openbind_xx01zvns2b_c2_elabs_scored,openbind_xx01zvns2b_c1_elabs_filtered,openbind_xx01zvns2b_c2_elabs_scored_top80percent,BulkDock Fragalysis export

>  <subsites>  (530) 
1 - Z4590/B/203/1

>  <smiles>  (530) 
CNC(=O)c1ccc(N2CCSCC2)c(NC(=O)c2cccc3c2C(C)(C)C(=O)N3)c1

>  <HIPPO Pose ID>  (530) 
119446

>  <energy_score>  (530) 
-19.224569

>  <inchikey>  (530) 
CJCOTEYOEQTNMY-UHFFFAOYSA-N

>  <gnina_score_min>  (530) 
6.244

>  <gnina_score>  (530) 
6.124

>  <ref_mols>  (530) 
Z3746a

>  <HIPPO Compound ID>  (530) 
184013

>  <distance_score>  (530) 
0.912897

>  <rmsd(smina/fragmenstein)>  (530) 
1.627

>  <ref_pdb>  (530) 
Z3746a

>  <inspiration_score>  (530) 
None

$$$$
P119461
     RDKit          3D

 31 34  0  0  0  0  0  0  0  0999 V2000
   -9.1813    8.9535  -11.5153 C   0  0  0  0  0  0  0  0  0  0  0  0
   -8.8590    7.7846  -12.2588 O   0  0  0  0  0  0  0  0  0  0  0  0
   -8.5773    6.6552  -11.5335 C   0  0  0  0  0  0  0  0  0  0  0  0
   -8.5831    6.5569  -10.1350 C   0  0  0  0  0  0  0  0  0  0  0  0
   -8.3094    5.3368   -9.4923 C   0  0  0  0  0  0  0  0  0  0  0  0
   -8.0393    4.1883  -10.2382 C   0  0  0  0  0  0  0  0  0  0  0  0
   -7.6863    2.8652   -9.5968 C   0  0  0  0  0  0  0  0  0  0  0  0
   -6.2796    2.4620   -9.7642 N   0  0  0  0  0  0  0  0  0  0  0  0
   -5.2964    3.5070   -9.4346 C   0  0  0  0  0  0  0  0  0  0  0  0
   -3.8492    2.9529   -9.4133 C   0  0  0  0  0  0  0  0  0  0  0  0
   -3.4607    2.2672  -10.6604 N   0  0  0  0  0  0  0  0  0  0  0  0
   -2.1589    1.6220  -10.5211 C   0  0  0  0  0  0  0  0  0  0  0  0
   -4.4915    1.2636  -11.0134 C   0  0  0  0  0  0  0  0  0  0  0  0
   -5.9190    1.8573  -11.0528 C   0  0  0  0  0  0  0  0  0  0  0  0
   -8.0201    4.3019  -11.6245 C   0  0  0  0  0  0  0  0  0  0  0  0
   -8.2370    5.5224  -12.2645 C   0  0  0  0  0  0  0  0  0  0  0  0
   -8.1249    5.5012  -13.6440 N   0  0  0  0  0  0  0  0  0  0  0  0
   -7.1419    4.7437  -14.5558 C   0  0  0  0  0  0  0  0  0  0  0  0
   -6.2241    4.0797  -14.2888 O   0  0  0  0  0  0  0  0  0  0  0  0
   -7.5259    4.8280  -15.9772 C   0  0  0  0  0  0  0  0  0  0  0  0
   -8.8156    4.3222  -16.2678 C   0  0  0  0  0  0  0  0  0  0  0  0
   -9.2134    4.0552  -17.5810 C   0  0  0  0  0  0  0  0  0  0  0  0
   -8.3114    4.2412  -18.6189 C   0  0  0  0  0  0  0  0  0  0  0  0
   -7.0569    4.7429  -18.3146 C   0  0  0  0  0  0  0  0  0  0  0  0
   -6.6401    5.0694  -17.0173 C   0  0  0  0  0  0  0  0  0  0  0  0
   -5.2363    5.6444  -17.0996 C   0  0  0  0  0  0  0  0  0  0  0  0
   -5.2915    7.1789  -17.0128 C   0  0  0  0  0  0  0  0  0  0  0  0
   -4.1656    5.1583  -16.1336 C   0  0  0  0  0  0  0  0  0  0  0  0
   -4.8550    5.3048  -18.5668 C   0  0  0  0  0  0  0  0  0  0  0  0
   -3.7531    5.3994  -19.0869 O   0  0  0  0  0  0  0  0  0  0  0  0
   -6.0200    4.9290  -19.2169 N   0  0  0  0  0  0  0  0  0  0  0  0
  1  2  1  0
  2  3  1  0
  3  4  2  0
  4  5  1  0
  5  6  2  0
  6  7  1  0
  7  8  1  0
  8  9  1  0
  9 10  1  0
 10 11  1  0
 11 12  1  0
 11 13  1  0
 13 14  1  0
  6 15  1  0
 15 16  2  0
 16 17  1  0
 17 18  1  0
 18 19  2  0
 18 20  1  0
 20 21  2  0
 21 22  1  0
 22 23  2  0
 23 24  1  0
 24 25  2  0
 25 26  1  0
 26 27  1  0
 26 28  1  0
 26 29  1  0
 29 30  2  0
 29 31  1  0
 16  3  1  0
 25 20  1  0
 14  8  1  0
 31 24  1  0
M  END
>  <name>  (531) 
P119461

>  <alias>  (531) 
None

>  <smina_score_min>  (531) 
-8.679

>  <exports>  (531) 
['/opt/xchem-fragalysis-2/maxwin/BulkDock/OUTPUTS/openbind_xx01zvns2b_c2_elabs_1LOUTNY.sdf', '/opt/xchem-fragalysis-2/maxwin/BulkDock/OUTPUTS/openbind_xx01zvns2b_c2_elabs_1LSYIIV.sdf']

>  <tags>  (531) 
syndirella_placed,openbind_xx01zvns2b_c2_elabs,openbind_xx01zvns2b_c2_elabs_scored_6.2plus,syndirella_product,openbind_xx01zvns2b_c2_elabs_scored,openbind_xx01zvns2b_c1_elabs_filtered,openbind_xx01zvns2b_c2_elabs_scored_top80percent,BulkDock Fragalysis export

>  <subsites>  (531) 
1 - Z4590/B/203/1

>  <smiles>  (531) 
COc1ccc(CN2CCN(C)CC2)cc1NC(=O)c1cccc2c1C(C)(C)C(=O)N2

>  <HIPPO Pose ID>  (531) 
119461

>  <energy_score>  (531) 
-37.859962

>  <inchikey>  (531) 
PSXNFNIPVPFUGH-UHFFFAOYSA-N

>  <gnina_score_min>  (531) 
6.319

>  <gnina_score>  (531) 
6.335

>  <ref_mols>  (531) 
Z3746a

>  <HIPPO Compound ID>  (531) 
184048

>  <distance_score>  (531) 
1.002773

>  <rmsd(smina/fragmenstein)>  (531) 
0.731

>  <ref_pdb>  (531) 
Z3746a

>  <inspiration_score>  (531) 
None

$$$$
P119520
     RDKit          3D

 32 36  0  0  0  0  0  0  0  0999 V2000
   -4.7932    5.4160  -19.4984 C   0  0  0  0  0  0  0  0  0  0  0  0
   -5.0267    5.2329  -18.0854 N   0  0  0  0  0  0  0  0  0  0  0  0
   -4.1044    5.4876  -17.1081 C   0  0  0  0  0  0  0  0  0  0  0  0
   -4.7431    5.3721  -15.8963 C   0  0  0  0  0  0  0  0  0  0  0  0
   -6.0994    5.0023  -16.1438 C   0  0  0  0  0  0  0  0  0  0  0  0
   -7.2402    4.7968  -15.3264 C   0  0  0  0  0  0  0  0  0  0  0  0
   -7.1457    5.2045  -13.9041 C   0  0  0  0  0  0  0  0  0  0  0  0
   -6.5657    6.1965  -13.6891 O   0  0  0  0  0  0  0  0  0  0  0  0
   -7.7880    4.1866  -12.9303 N   0  0  0  0  0  0  0  0  0  0  0  0
   -7.7686    4.1301  -11.5383 C   0  0  0  0  0  0  0  0  0  0  0  0
   -6.9667    5.0691  -10.8572 C   0  0  0  0  0  0  0  0  0  0  0  0
   -6.8426    5.0494   -9.4768 C   0  0  0  0  0  0  0  0  0  0  0  0
   -7.5729    4.1009   -8.8062 C   0  0  0  0  0  0  0  0  0  0  0  0
   -8.4372    3.2109   -9.4391 C   0  0  0  0  0  0  0  0  0  0  0  0
   -8.5076    3.1741  -10.8271 C   0  0  0  0  0  0  0  0  0  0  0  0
   -9.2268    2.4973   -8.3883 C   0  0  0  0  0  0  0  0  0  0  0  0
   -8.9014    3.2706   -7.1784 N   0  0  0  0  0  0  0  0  0  0  0  0
   -9.9419    3.7071   -6.2565 C   0  0  2  0  0  0  0  0  0  0  0  0
   -9.9779    5.2153   -5.9509 C   0  0  0  0  0  0  0  0  0  0  0  0
   -9.1541    5.6696   -4.7460 C   0  0  0  0  0  0  0  0  0  0  0  0
   -9.0118    4.6320   -3.6590 C   0  0  0  0  0  0  0  0  0  0  0  0
   -8.8881    4.9424   -2.4753 O   0  0  0  0  0  0  0  0  0  0  0  0
   -9.0314    3.3300   -4.0485 N   0  0  0  0  0  0  0  0  0  0  0  0
   -9.9461    2.9358   -4.9766 C   0  0  0  0  0  0  0  0  0  0  0  0
  -10.7876    2.0697   -4.7636 O   0  0  0  0  0  0  0  0  0  0  0  0
   -7.7593    4.0200   -7.3632 C   0  0  0  0  0  0  0  0  0  0  0  0
   -7.1020    4.6499   -6.5554 O   0  0  0  0  0  0  0  0  0  0  0  0
   -8.4503    4.3909  -15.9030 C   0  0  0  0  0  0  0  0  0  0  0  0
   -8.5261    4.2349  -17.2849 C   0  0  0  0  0  0  0  0  0  0  0  0
  -10.1784    3.8454  -18.1083 Br  0  0  0  0  0  0  0  0  0  0  0  0
   -7.4335    4.4718  -18.1206 C   0  0  0  0  0  0  0  0  0  0  0  0
   -6.2301    4.8646  -17.5264 C   0  0  0  0  0  0  0  0  0  0  0  0
  1  2  1  0
  2  3  1  0
  3  4  2  0
  4  5  1  0
  5  6  2  0
  6  7  1  0
  7  8  2  0
  7  9  1  0
  9 10  1  0
 10 11  2  0
 11 12  1  0
 12 13  2  0
 13 14  1  0
 14 15  2  0
 14 16  1  0
 16 17  1  0
 18 17  1  1
 18 19  1  0
 19 20  1  0
 20 21  1  0
 21 22  2  0
 21 23  1  0
 23 24  1  0
 24 25  2  0
 17 26  1  0
 26 27  2  0
  6 28  1  0
 28 29  2  0
 29 30  1  0
 29 31  1  0
 31 32  2  0
 32  2  1  0
 32  5  1  0
 15 10  1  0
 24 18  1  0
 26 13  1  0
M  END
>  <name>  (532) 
P119520

>  <alias>  (532) 
None

>  <smina_score_min>  (532) 
-10.62

>  <exports>  (532) 
['/opt/xchem-fragalysis-2/maxwin/BulkDock/OUTPUTS/openbind_xx01zvns2b_c2_elabs_1LOUTNY.sdf', '/opt/xchem-fragalysis-2/maxwin/BulkDock/OUTPUTS/openbind_xx01zvns2b_c2_elabs_1LSYIIV.sdf']

>  <tags>  (532) 
syndirella_placed,openbind_xx01zvns2b_c2_elabs,openbind_xx01zvns2b_c2_elabs_scored_6.2plus,syndirella_product,openbind_xx01zvns2b_c2_elabs_scored,openbind_xx01zvns2b_c2_elabs_scored_top80percent,BulkDock Fragalysis export

>  <subsites>  (532) 
1 - Z4590/B/203/1

>  <smiles>  (532) 
Cn1ccc2c(C(=O)Nc3ccc4c(c3)CN([C@@H]3CCC(=O)NC3=O)C4=O)cc(Br)cc21

>  <HIPPO Pose ID>  (532) 
119520

>  <energy_score>  (532) 
-22.851669

>  <inchikey>  (532) 
HWHKCIHUVSGBHV-GOSISDBHSA-N

>  <gnina_score_min>  (532) 
6.255

>  <gnina_score>  (532) 
6.166

>  <ref_mols>  (532) 
Z3400a

>  <HIPPO Compound ID>  (532) 
184150

>  <distance_score>  (532) 
0.79694

>  <rmsd(smina/fragmenstein)>  (532) 
0.829

>  <ref_pdb>  (532) 
Z3400a

>  <inspiration_score>  (532) 
None

$$$$
P119850
     RDKit          3D

 30 34  0  0  0  0  0  0  0  0999 V2000
   -5.8913    4.1185  -21.1521 O   0  0  0  0  0  0  0  0  0  0  0  0
   -6.2256    4.2482  -19.9958 C   0  0  0  0  0  0  0  0  0  0  0  0
   -7.4687    4.0396  -19.4503 N   0  0  0  0  0  0  0  0  0  0  0  0
   -7.4642    4.2892  -18.0829 C   0  0  0  0  0  0  0  0  0  0  0  0
   -8.5356    4.2517  -17.2242 C   0  0  0  0  0  0  0  0  0  0  0  0
  -10.2541    4.0588  -17.9001 Br  0  0  0  0  0  0  0  0  0  0  0  0
   -8.3351    4.5018  -15.8712 C   0  0  0  0  0  0  0  0  0  0  0  0
   -7.0473    4.8221  -15.4075 C   0  0  0  0  0  0  0  0  0  0  0  0
   -6.8574    5.2180  -13.9928 C   0  0  0  0  0  0  0  0  0  0  0  0
   -6.2518    6.1968  -13.7893 O   0  0  0  0  0  0  0  0  0  0  0  0
   -7.6031    4.2751  -13.0125 N   0  0  0  0  0  0  0  0  0  0  0  0
   -7.6744    4.2899  -11.6242 C   0  0  0  0  0  0  0  0  0  0  0  0
   -7.0070    5.3043  -10.9080 C   0  0  0  0  0  0  0  0  0  0  0  0
   -7.0014    5.3199   -9.5168 C   0  0  0  0  0  0  0  0  0  0  0  0
   -7.6871    4.3108   -8.8842 C   0  0  0  0  0  0  0  0  0  0  0  0
   -8.3896    3.3395   -9.5711 C   0  0  0  0  0  0  0  0  0  0  0  0
   -8.3965    3.2939  -10.9531 C   0  0  0  0  0  0  0  0  0  0  0  0
   -9.0494    2.5042   -8.5679 C   0  0  0  0  0  0  0  0  0  0  0  0
   -9.7610    1.5585   -8.8337 O   0  0  0  0  0  0  0  0  0  0  0  0
   -8.7213    3.0355   -7.3524 N   0  0  0  0  0  0  0  0  0  0  0  0
   -9.1448    2.5104   -6.0849 C   0  0  0  0  0  0  0  0  0  0  0  0
  -10.2672    3.3472   -5.5416 C   0  0  0  0  0  0  0  0  0  0  0  0
  -10.1478    4.8471   -5.3592 C   0  0  0  0  0  0  0  0  0  0  0  0
  -10.1485    3.9461   -4.1635 C   0  0  0  0  0  0  0  0  0  0  0  0
   -7.8123    4.0452   -7.4636 C   0  0  0  0  0  0  0  0  0  0  0  0
   -7.1652    4.6317   -6.6120 O   0  0  0  0  0  0  0  0  0  0  0  0
   -5.9629    4.9247  -16.2923 C   0  0  0  0  0  0  0  0  0  0  0  0
   -6.2071    4.6426  -17.6218 C   0  0  0  0  0  0  0  0  0  0  0  0
   -5.3240    4.6674  -18.7915 C   0  0  0  0  0  0  0  0  0  0  0  0
   -4.1472    4.9469  -18.8058 O   0  0  0  0  0  0  0  0  0  0  0  0
  1  2  2  0
  2  3  1  0
  3  4  1  0
  4  5  2  0
  5  6  1  0
  5  7  1  0
  7  8  2  0
  8  9  1  0
  9 10  2  0
  9 11  1  0
 11 12  1  0
 12 13  2  0
 13 14  1  0
 14 15  2  0
 15 16  1  0
 16 17  2  0
 16 18  1  0
 18 19  2  0
 18 20  1  0
 20 21  1  0
 21 22  1  0
 22 23  1  0
 23 24  1  0
 20 25  1  0
 25 26  2  0
  8 27  1  0
 27 28  2  0
 28 29  1  0
 29 30  2  0
 29  2  1  0
 28  4  1  0
 17 12  1  0
 24 22  1  0
 25 15  1  0
M  END
>  <name>  (533) 
P119850

>  <alias>  (533) 
None

>  <smina_score_min>  (533) 
-8.734

>  <exports>  (533) 
['/opt/xchem-fragalysis-2/maxwin/BulkDock/OUTPUTS/openbind_xx01zvns2b_c2_elabs_1LOUTNY.sdf', '/opt/xchem-fragalysis-2/maxwin/BulkDock/OUTPUTS/openbind_xx01zvns2b_c2_elabs_1LSYIIV.sdf']

>  <tags>  (533) 
syndirella_placed,openbind_xx01zvns2b_c2_elabs,openbind_xx01zvns2b_c2_elabs_scored_6.2plus,syndirella_product,openbind_xx01zvns2b_c2_elabs_scored,openbind_xx01zvns2b_c2_elabs_scored_top80percent,BulkDock Fragalysis export

>  <subsites>  (533) 
1 - Z4590/B/203/1

>  <smiles>  (533) 
O=C1Nc2c(Br)cc(C(=O)Nc3ccc4c(c3)C(=O)N(CC3CC3)C4=O)cc2C1=O

>  <HIPPO Pose ID>  (533) 
119850

>  <energy_score>  (533) 
-29.014492

>  <inchikey>  (533) 
IGJIDQPKAOTOGJ-UHFFFAOYSA-N

>  <gnina_score_min>  (533) 
6.247

>  <gnina_score>  (533) 
6.131

>  <ref_mols>  (533) 
Z3677a

>  <HIPPO Compound ID>  (533) 
184527

>  <distance_score>  (533) 
0.75033

>  <rmsd(smina/fragmenstein)>  (533) 
0.884

>  <ref_pdb>  (533) 
Z3677a

>  <inspiration_score>  (533) 
None

$$$$
P125185
     RDKit          3D

 35 39  0  0  0  0  0  0  0  0999 V2000
    1.3899    9.3929  -15.2581 C   0  0  0  0  0  0  0  0  0  0  0  0
    1.6952    8.3051  -16.2936 C   0  0  0  0  0  0  0  0  0  0  0  0
    2.3889    7.0912  -15.6646 C   0  0  0  0  0  0  0  0  0  0  0  0
    2.6219    8.8962  -17.3671 C   0  0  0  0  0  0  0  0  0  0  0  0
    0.5009    7.9135  -17.0146 O   0  0  0  0  0  0  0  0  0  0  0  0
   -0.5381    7.3347  -16.3659 C   0  0  0  0  0  0  0  0  0  0  0  0
   -0.6009    7.1007  -15.1686 O   0  0  0  0  0  0  0  0  0  0  0  0
   -1.5337    7.0297  -17.2527 N   0  0  0  0  0  0  0  0  0  0  0  0
   -1.5543    5.7444  -17.9217 C   0  0  0  0  0  0  0  0  0  0  0  0
   -2.9056    5.0591  -17.7315 C   0  0  0  0  0  0  0  0  0  0  0  0
   -4.0285    6.0081  -18.1730 C   0  0  0  0  0  0  0  0  0  0  0  0
   -5.3894    5.3661  -18.1547 C   0  0  0  0  0  0  0  0  0  0  0  0
   -6.0751    5.0063  -19.2982 C   0  0  0  0  0  0  0  0  0  0  0  0
   -7.3032    4.5224  -18.9455 N   0  0  0  0  0  0  0  0  0  0  0  0
   -7.4312    4.5164  -17.5785 C   0  0  0  0  0  0  0  0  0  0  0  0
   -8.5198    4.1272  -16.7890 C   0  0  0  0  0  0  0  0  0  0  0  0
   -8.4152    4.3005  -15.4069 C   0  0  0  0  0  0  0  0  0  0  0  0
   -7.2520    4.8155  -14.8348 C   0  0  0  0  0  0  0  0  0  0  0  0
   -7.1976    5.1701  -13.3830 C   0  0  0  0  0  0  0  0  0  0  0  0
   -6.6834    6.1831  -13.1031 O   0  0  0  0  0  0  0  0  0  0  0  0
   -7.9251    4.1308  -12.4890 N   0  0  0  0  0  0  0  0  0  0  0  0
   -8.0815    4.0790  -11.1016 C   0  0  0  0  0  0  0  0  0  0  0  0
   -7.6869    5.1709  -10.3027 C   0  0  0  0  0  0  0  0  0  0  0  0
   -7.8246    5.1462   -8.9089 C   0  0  0  0  0  0  0  0  0  0  0  0
   -8.3652    4.0166   -8.3296 C   0  0  0  0  0  0  0  0  0  0  0  0
   -8.7749    2.9488   -9.1281 C   0  0  0  0  0  0  0  0  0  0  0  0
   -8.6449    2.9465  -10.5083 C   0  0  0  0  0  0  0  0  0  0  0  0
   -9.3374    1.9274   -8.2354 C   0  0  0  0  0  0  0  0  0  0  0  0
   -9.8264    0.8703   -8.5711 O   0  0  0  0  0  0  0  0  0  0  0  0
   -9.2436    2.4173   -6.9498 N   0  0  0  0  0  0  0  0  0  0  0  0
   -8.6061    3.7028   -6.8918 C   0  0  0  0  0  0  0  0  0  0  0  0
   -6.1569    5.1680  -15.6460 C   0  0  0  0  0  0  0  0  0  0  0  0
   -6.2459    5.0350  -17.0487 C   0  0  0  0  0  0  0  0  0  0  0  0
   -3.9622    7.3325  -17.3934 C   0  0  0  0  0  0  0  0  0  0  0  0
   -2.5870    7.9777  -17.5444 C   0  0  0  0  0  0  0  0  0  0  0  0
  1  2  1  0
  2  3  1  0
  2  4  1  0
  2  5  1  0
  5  6  1  0
  6  7  2  0
  6  8  1  0
  8  9  1  0
  9 10  1  0
 10 11  1  0
 11 12  1  0
 12 13  2  0
 13 14  1  0
 14 15  1  0
 15 16  2  0
 16 17  1  0
 17 18  2  0
 18 19  1  0
 19 20  2  0
 19 21  1  0
 21 22  1  0
 22 23  2  0
 23 24  1  0
 24 25  2  0
 25 26  1  0
 26 27  2  0
 26 28  1  0
 28 29  2  0
 28 30  1  0
 30 31  1  0
 18 32  1  0
 32 33  2  0
 11 34  1  0
 34 35  1  0
 35  8  1  0
 33 12  1  0
 33 15  1  0
 27 22  1  0
 31 25  1  0
M  END
>  <name>  (534) 
P125185

>  <alias>  (534) 
None

>  <smina_score_min>  (534) 
-8.923

>  <exports>  (534) 
['/opt/xchem-fragalysis-2/maxwin/BulkDock/OUTPUTS/openbind_xx01zvns2b_c2_elabs_1LOUTNY.sdf', '/opt/xchem-fragalysis-2/maxwin/BulkDock/OUTPUTS/openbind_xx01zvns2b_c2_elabs_1LSYIIV.sdf']

>  <tags>  (534) 
syndirella_placed,openbind_xx01zvns2b_c2_elabs,openbind_xx01zvns2b_c2_elabs_scored_6.2plus,syndirella_product,openbind_xx01zvns2b_c2_elabs_scored,openbind_xx01zvns2b_c2_elabs_scored_top80percent,BulkDock Fragalysis export

>  <subsites>  (534) 
1 - Z4590/B/203/1

>  <smiles>  (534) 
CC(C)(C)OC(=O)N1CCC(c2c[nH]c3ccc(C(=O)Nc4ccc5c(c4)C(=O)NC5)cc23)CC1

>  <HIPPO Pose ID>  (534) 
125185

>  <energy_score>  (534) 
-37.136741

>  <inchikey>  (534) 
LOGCSYUXJJCZNM-UHFFFAOYSA-N

>  <gnina_score_min>  (534) 
6.2

>  <gnina_score>  (534) 
6.319

>  <ref_mols>  (534) 
Z4117a

>  <HIPPO Compound ID>  (534) 
187797

>  <distance_score>  (534) 
0.465155

>  <rmsd(smina/fragmenstein)>  (534) 
0.788

>  <ref_pdb>  (534) 
Z4117a

>  <inspiration_score>  (534) 
None

$$$$
P125187
     RDKit          3D

 37 41  0  0  0  0  0  0  0  0999 V2000
   -9.3040    2.4479   -5.7522 C   0  0  0  0  0  0  0  0  0  0  0  0
   -9.4319    3.2412   -6.9426 N   0  0  0  0  0  0  0  0  0  0  0  0
   -9.1080    2.4553   -8.1533 C   0  0  0  0  0  0  0  0  0  0  0  0
   -8.6973    3.4951   -9.1386 C   0  0  0  0  0  0  0  0  0  0  0  0
   -8.5270    3.3688  -10.5067 C   0  0  0  0  0  0  0  0  0  0  0  0
   -8.1549    4.5094  -11.2118 C   0  0  0  0  0  0  0  0  0  0  0  0
   -7.9569    4.4330  -12.5836 N   0  0  0  0  0  0  0  0  0  0  0  0
   -7.5608    5.5204  -13.5993 C   0  0  0  0  0  0  0  0  0  0  0  0
   -7.2628    6.6367  -13.4351 O   0  0  0  0  0  0  0  0  0  0  0  0
   -7.4900    4.9925  -14.9789 C   0  0  0  0  0  0  0  0  0  0  0  0
   -8.5388    4.2941  -15.5721 C   0  0  0  0  0  0  0  0  0  0  0  0
   -8.5240    4.0197  -16.9452 C   0  0  0  0  0  0  0  0  0  0  0  0
   -7.4263    4.4811  -17.6832 C   0  0  0  0  0  0  0  0  0  0  0  0
   -7.1778    4.4485  -19.0331 N   0  0  0  0  0  0  0  0  0  0  0  0
   -5.9706    5.0456  -19.3072 C   0  0  0  0  0  0  0  0  0  0  0  0
   -5.4524    5.5491  -18.1330 C   0  0  0  0  0  0  0  0  0  0  0  0
   -4.2299    6.3984  -17.9002 C   0  0  0  0  0  0  0  0  0  0  0  0
   -2.9285    5.6017  -17.9297 C   0  0  0  0  0  0  0  0  0  0  0  0
   -2.3964    5.4018  -19.3377 C   0  0  0  0  0  0  0  0  0  0  0  0
   -2.4031    6.6295  -20.1057 N   0  0  0  0  0  0  0  0  0  0  0  0
   -1.2788    7.0621  -20.7575 C   0  0  0  0  0  0  0  0  0  0  0  0
   -0.4463    7.7961  -20.2447 O   0  0  0  0  0  0  0  0  0  0  0  0
   -1.2860    6.6401  -22.0499 O   0  0  0  0  0  0  0  0  0  0  0  0
   -0.2705    7.1125  -22.9723 C   0  0  0  0  0  0  0  0  0  0  0  0
    1.1359    6.6693  -22.5567 C   0  0  0  0  0  0  0  0  0  0  0  0
   -0.3586    8.6321  -23.1590 C   0  0  0  0  0  0  0  0  0  0  0  0
   -0.6113    6.4367  -24.3098 C   0  0  0  0  0  0  0  0  0  0  0  0
   -3.6244    7.3944  -20.1723 C   0  0  0  0  0  0  0  0  0  0  0  0
   -4.1738    7.6573  -18.7763 C   0  0  0  0  0  0  0  0  0  0  0  0
   -6.3543    5.1499  -17.1002 C   0  0  0  0  0  0  0  0  0  0  0  0
   -6.3753    5.3850  -15.7195 C   0  0  0  0  0  0  0  0  0  0  0  0
   -7.9589    5.7326  -10.5442 C   0  0  0  0  0  0  0  0  0  0  0  0
   -8.1116    5.8388   -9.1630 C   0  0  0  0  0  0  0  0  0  0  0  0
   -8.4779    4.7075   -8.4664 C   0  0  0  0  0  0  0  0  0  0  0  0
   -8.6526    4.5020   -6.9803 C   0  0  0  0  0  0  0  0  0  0  0  0
   -9.4498    5.5997   -6.2536 C   0  0  0  0  0  0  0  0  0  0  0  0
   -7.2429    4.4927   -6.3535 C   0  0  0  0  0  0  0  0  0  0  0  0
  1  2  1  0
  2  3  1  0
  3  4  1  0
  4  5  2  0
  5  6  1  0
  6  7  1  0
  7  8  1  0
  8  9  2  0
  8 10  1  0
 10 11  2  0
 11 12  1  0
 12 13  2  0
 13 14  1  0
 14 15  1  0
 15 16  2  0
 16 17  1  0
 17 18  1  0
 18 19  1  0
 19 20  1  0
 20 21  1  0
 21 22  2  0
 21 23  1  0
 23 24  1  0
 24 25  1  0
 24 26  1  0
 24 27  1  0
 20 28  1  0
 28 29  1  0
 16 30  1  0
 30 31  2  0
  6 32  2  0
 32 33  1  0
 33 34  2  0
 34 35  1  0
 35 36  1  0
 35 37  1  0
 35  2  1  0
 34  4  1  0
 31 10  1  0
 30 13  1  0
 29 17  1  0
M  END
>  <name>  (535) 
P125187

>  <alias>  (535) 
None

>  <smina_score_min>  (535) 
-8.865

>  <exports>  (535) 
['/opt/xchem-fragalysis-2/maxwin/BulkDock/OUTPUTS/openbind_xx01zvns2b_c2_elabs_1LOUTNY.sdf', '/opt/xchem-fragalysis-2/maxwin/BulkDock/OUTPUTS/openbind_xx01zvns2b_c2_elabs_1LSYIIV.sdf']

>  <tags>  (535) 
syndirella_placed,openbind_xx01zvns2b_c2_elabs,openbind_xx01zvns2b_c2_elabs_scored_6.2plus,syndirella_product,openbind_xx01zvns2b_c2_elabs_scored,openbind_xx01zvns2b_c2_elabs_scored_top80percent,BulkDock Fragalysis export

>  <subsites>  (535) 
1 - Z4590/B/203/1

>  <smiles>  (535) 
CN1Cc2cc(NC(=O)c3ccc4[nH]cc(C5CCN(C(=O)OC(C)(C)C)CC5)c4c3)ccc2C1(C)C

>  <HIPPO Pose ID>  (535) 
125187

>  <energy_score>  (535) 
-63.33997

>  <inchikey>  (535) 
HAUSFEJLLJTDIF-UHFFFAOYSA-N

>  <gnina_score_min>  (535) 
6.211

>  <gnina_score>  (535) 
6.383

>  <ref_mols>  (535) 
Z4117a

>  <HIPPO Compound ID>  (535) 
187810

>  <distance_score>  (535) 
1.223445

>  <rmsd(smina/fragmenstein)>  (535) 
0.916

>  <ref_pdb>  (535) 
Z4117a

>  <inspiration_score>  (535) 
None

$$$$
P125188
     RDKit          3D

 38 42  0  0  0  0  0  0  0  0999 V2000
   -9.0810    4.5009   -2.7937 C   0  0  0  0  0  0  0  0  0  0  0  0
   -8.7056    4.0741   -4.2045 C   0  0  0  0  0  0  0  0  0  0  0  0
   -9.8375    3.3019   -4.8916 C   0  0  0  0  0  0  0  0  0  0  0  0
   -9.4046    2.5069   -6.1342 C   0  0  0  0  0  0  0  0  0  0  0  0
   -9.3727    3.2935   -7.3542 N   0  0  0  0  0  0  0  0  0  0  0  0
   -8.4123    4.4006   -7.3668 C   0  0  0  0  0  0  0  0  0  0  0  0
   -8.1294    4.6020   -8.8158 C   0  0  0  0  0  0  0  0  0  0  0  0
   -7.6050    5.7052   -9.4496 C   0  0  0  0  0  0  0  0  0  0  0  0
   -7.4862    5.6498  -10.8343 C   0  0  0  0  0  0  0  0  0  0  0  0
   -7.8655    4.4993  -11.5557 C   0  0  0  0  0  0  0  0  0  0  0  0
   -7.7439    4.4798  -12.9406 N   0  0  0  0  0  0  0  0  0  0  0  0
   -7.3619    5.5021  -13.8622 C   0  0  0  0  0  0  0  0  0  0  0  0
   -7.1228    6.6645  -13.6899 O   0  0  0  0  0  0  0  0  0  0  0  0
   -7.2348    5.0412  -15.2618 C   0  0  0  0  0  0  0  0  0  0  0  0
   -8.2632    4.3778  -15.9321 C   0  0  0  0  0  0  0  0  0  0  0  0
   -8.1819    4.1714  -17.3153 C   0  0  0  0  0  0  0  0  0  0  0  0
   -7.0577    4.6804  -17.9832 C   0  0  0  0  0  0  0  0  0  0  0  0
   -6.7619    4.7327  -19.3234 N   0  0  0  0  0  0  0  0  0  0  0  0
   -5.5516    5.3521  -19.5232 C   0  0  0  0  0  0  0  0  0  0  0  0
   -5.0671    5.7707  -18.3021 C   0  0  0  0  0  0  0  0  0  0  0  0
   -3.8445    6.5800  -17.9825 C   0  0  0  0  0  0  0  0  0  0  0  0
   -2.6538    5.7442  -17.5221 C   0  0  0  0  0  0  0  0  0  0  0  0
   -1.6493    5.7177  -18.6874 C   0  0  0  0  0  0  0  0  0  0  0  0
   -0.6949    6.7893  -19.1737 N   0  0  0  0  0  0  0  0  0  0  0  0
    0.5046    7.2770  -18.6132 C   0  0  0  0  0  0  0  0  0  0  0  0
    1.0300    7.0349  -17.5644 O   0  0  0  0  0  0  0  0  0  0  0  0
    1.0328    8.1422  -19.5261 O   0  0  0  0  0  0  0  0  0  0  0  0
    2.3147    8.7836  -19.3090 C   0  0  0  0  0  0  0  0  0  0  0  0
    2.5364    9.6406  -20.5650 C   0  0  0  0  0  0  0  0  0  0  0  0
    3.4448    7.7520  -19.2163 C   0  0  0  0  0  0  0  0  0  0  0  0
    2.2770    9.7088  -18.0880 C   0  0  0  0  0  0  0  0  0  0  0  0
   -1.8466    7.6941  -18.7934 C   0  0  0  0  0  0  0  0  0  0  0  0
   -3.3320    7.4590  -19.1166 C   0  0  0  0  0  0  0  0  0  0  0  0
   -6.0110    5.3195  -17.3258 C   0  0  0  0  0  0  0  0  0  0  0  0
   -6.0881    5.4766  -15.9361 C   0  0  0  0  0  0  0  0  0  0  0  0
   -8.3661    3.3772  -10.8942 C   0  0  0  0  0  0  0  0  0  0  0  0
   -8.5095    3.4577   -9.5211 C   0  0  0  0  0  0  0  0  0  0  0  0
   -9.0773    2.4677   -8.5517 C   0  0  0  0  0  0  0  0  0  0  0  0
  1  2  1  0
  2  3  1  0
  3  4  1  0
  4  5  1  0
  5  6  1  0
  6  7  1  0
  7  8  2  0
  8  9  1  0
  9 10  2  0
 10 11  1  0
 11 12  1  0
 12 13  2  0
 12 14  1  0
 14 15  2  0
 15 16  1  0
 16 17  2  0
 17 18  1  0
 18 19  1  0
 19 20  2  0
 20 21  1  0
 21 22  1  0
 22 23  1  0
 23 24  1  0
 24 25  1  0
 25 26  2  0
 25 27  1  0
 27 28  1  0
 28 29  1  0
 28 30  1  0
 28 31  1  0
 24 32  1  0
 32 33  1  0
 20 34  1  0
 34 35  2  0
 10 36  1  0
 36 37  2  0
 37 38  1  0
 38  5  1  0
 37  7  1  0
 35 14  1  0
 34 17  1  0
 33 21  1  0
M  END
>  <name>  (536) 
P125188

>  <alias>  (536) 
None

>  <smina_score_min>  (536) 
-9.926

>  <exports>  (536) 
['/opt/xchem-fragalysis-2/maxwin/BulkDock/OUTPUTS/openbind_xx01zvns2b_c2_elabs_1LOUTNY.sdf', '/opt/xchem-fragalysis-2/maxwin/BulkDock/OUTPUTS/openbind_xx01zvns2b_c2_elabs_1LSYIIV.sdf']

>  <tags>  (536) 
syndirella_placed,openbind_xx01zvns2b_c2_elabs,openbind_xx01zvns2b_c2_elabs_scored_6.2plus,syndirella_product,openbind_xx01zvns2b_c2_elabs_scored,openbind_xx01zvns2b_c2_elabs_scored_top80percent,BulkDock Fragalysis export

>  <subsites>  (536) 
1 - Z4590/B/203/1

>  <smiles>  (536) 
CCCCN1Cc2ccc(NC(=O)c3ccc4[nH]cc(C5CCN(C(=O)OC(C)(C)C)CC5)c4c3)cc2C1

>  <HIPPO Pose ID>  (536) 
125188

>  <energy_score>  (536) 
-6.514907

>  <inchikey>  (536) 
BTBAULIIQVDPMN-UHFFFAOYSA-N

>  <gnina_score_min>  (536) 
6.779

>  <gnina_score>  (536) 
6.327

>  <ref_mols>  (536) 
Z4117a

>  <HIPPO Compound ID>  (536) 
187812

>  <distance_score>  (536) 
1.018118

>  <rmsd(smina/fragmenstein)>  (536) 
1.313

>  <ref_pdb>  (536) 
Z4117a

>  <inspiration_score>  (536) 
None

$$$$
P125204
     RDKit          3D

 28 32  0  0  0  0  0  0  0  0999 V2000
   -5.1246    6.8389  -19.6357 C   0  0  0  0  0  0  0  0  0  0  0  0
   -4.6029    5.5844  -18.9370 C   0  0  0  0  0  0  0  0  0  0  0  0
   -3.0897    5.4490  -19.1227 C   0  0  0  0  0  0  0  0  0  0  0  0
   -5.0016    5.5771  -17.5333 N   0  0  0  0  0  0  0  0  0  0  0  0
   -4.2523    6.1934  -16.5867 N   0  0  0  0  0  0  0  0  0  0  0  0
   -4.9814    6.0460  -15.4732 C   0  0  0  0  0  0  0  0  0  0  0  0
   -6.1968    5.3616  -15.6931 C   0  0  0  0  0  0  0  0  0  0  0  0
   -7.3348    4.9711  -14.9692 C   0  0  0  0  0  0  0  0  0  0  0  0
   -7.4428    5.3811  -13.5477 C   0  0  0  0  0  0  0  0  0  0  0  0
   -7.0892    6.4642  -13.2859 O   0  0  0  0  0  0  0  0  0  0  0  0
   -7.9945    4.2568  -12.6354 N   0  0  0  0  0  0  0  0  0  0  0  0
   -8.1315    4.2011  -11.2462 C   0  0  0  0  0  0  0  0  0  0  0  0
   -7.6953    5.2785  -10.4473 C   0  0  0  0  0  0  0  0  0  0  0  0
   -7.7973    5.2451   -9.0506 C   0  0  0  0  0  0  0  0  0  0  0  0
   -8.3523    4.1244   -8.4679 C   0  0  0  0  0  0  0  0  0  0  0  0
   -8.8000    3.0709   -9.2651 C   0  0  0  0  0  0  0  0  0  0  0  0
   -8.6913    3.0709  -10.6473 C   0  0  0  0  0  0  0  0  0  0  0  0
   -9.3972    2.0712   -8.3702 C   0  0  0  0  0  0  0  0  0  0  0  0
   -9.9496    1.0449   -8.7023 O   0  0  0  0  0  0  0  0  0  0  0  0
   -9.2612    2.5467   -7.0829 N   0  0  0  0  0  0  0  0  0  0  0  0
   -8.5896    3.8148   -7.0291 C   0  0  0  0  0  0  0  0  0  0  0  0
   -8.3586    4.3156  -15.6669 C   0  0  0  0  0  0  0  0  0  0  0  0
   -8.2120    4.0557  -17.0345 C   0  0  0  0  0  0  0  0  0  0  0  0
   -9.2735    3.3273  -17.8194 C   0  0  0  0  0  0  0  0  0  0  0  0
   -9.4962    3.7766  -19.2439 C   0  0  0  0  0  0  0  0  0  0  0  0
  -10.5779    3.9629  -18.2359 C   0  0  0  0  0  0  0  0  0  0  0  0
   -7.1134    4.4187  -17.7367 N   0  0  0  0  0  0  0  0  0  0  0  0
   -6.1700    5.0601  -17.0392 C   0  0  0  0  0  0  0  0  0  0  0  0
  1  2  1  0
  2  3  1  0
  2  4  1  0
  4  5  1  0
  5  6  2  0
  6  7  1  0
  7  8  2  0
  8  9  1  0
  9 10  2  0
  9 11  1  0
 11 12  1  0
 12 13  2  0
 13 14  1  0
 14 15  2  0
 15 16  1  0
 16 17  2  0
 16 18  1  0
 18 19  2  0
 18 20  1  0
 20 21  1  0
  8 22  1  0
 22 23  2  0
 23 24  1  0
 24 25  1  0
 25 26  1  0
 23 27  1  0
 27 28  2  0
 28  4  1  0
 28  7  1  0
 17 12  1  0
 26 24  1  0
 21 15  1  0
M  END
>  <name>  (537) 
P125204

>  <alias>  (537) 
None

>  <smina_score_min>  (537) 
-9.109

>  <exports>  (537) 
['/opt/xchem-fragalysis-2/maxwin/BulkDock/OUTPUTS/openbind_xx01zvns2b_c2_elabs_1LOUTNY.sdf', '/opt/xchem-fragalysis-2/maxwin/BulkDock/OUTPUTS/openbind_xx01zvns2b_c2_elabs_1LSYIIV.sdf']

>  <tags>  (537) 
syndirella_placed,openbind_xx01zvns2b_c2_elabs,openbind_xx01zvns2b_c2_elabs_scored_6.2plus,syndirella_product,openbind_xx01zvns2b_c2_elabs_scored,openbind_xx01zvns2b_c2_elabs_scored_top80percent,BulkDock Fragalysis export

>  <subsites>  (537) 
1 - Z4590/B/203/1

>  <smiles>  (537) 
CC(C)n1ncc2c(C(=O)Nc3ccc4c(c3)C(=O)NC4)cc(C3CC3)nc21

>  <HIPPO Pose ID>  (537) 
125204

>  <energy_score>  (537) 
-29.813235

>  <inchikey>  (537) 
ZLFLNRREZKHNPX-UHFFFAOYSA-N

>  <gnina_score_min>  (537) 
6.301

>  <gnina_score>  (537) 
6.168

>  <ref_mols>  (537) 
Z3559a

>  <HIPPO Compound ID>  (537) 
177964

>  <distance_score>  (537) 
0.506846

>  <rmsd(smina/fragmenstein)>  (537) 
0.702

>  <ref_pdb>  (537) 
Z3559a

>  <inspiration_score>  (537) 
None

$$$$
P125206
     RDKit          3D

 28 32  0  0  0  0  0  0  0  0999 V2000
   -4.4402    7.0492  -19.4926 C   0  0  0  0  0  0  0  0  0  0  0  0
   -4.1097    5.6970  -18.8613 C   0  0  0  0  0  0  0  0  0  0  0  0
   -2.6073    5.4138  -18.9271 C   0  0  0  0  0  0  0  0  0  0  0  0
   -4.6346    5.6238  -17.5023 N   0  0  0  0  0  0  0  0  0  0  0  0
   -3.9591    6.1473  -16.4524 N   0  0  0  0  0  0  0  0  0  0  0  0
   -4.8097    5.9901  -15.4290 C   0  0  0  0  0  0  0  0  0  0  0  0
   -6.0212    5.3741  -15.8090 C   0  0  0  0  0  0  0  0  0  0  0  0
   -7.2504    5.0165  -15.2381 C   0  0  0  0  0  0  0  0  0  0  0  0
   -7.5223    5.4596  -13.8527 C   0  0  0  0  0  0  0  0  0  0  0  0
   -7.3809    6.5985  -13.6337 O   0  0  0  0  0  0  0  0  0  0  0  0
   -7.9010    4.2967  -12.9067 N   0  0  0  0  0  0  0  0  0  0  0  0
   -8.0862    4.2767  -11.5192 C   0  0  0  0  0  0  0  0  0  0  0  0
   -7.8735    5.4424  -10.7603 C   0  0  0  0  0  0  0  0  0  0  0  0
   -8.0253    5.4428   -9.3696 C   0  0  0  0  0  0  0  0  0  0  0  0
   -8.3954    4.2642   -8.7518 C   0  0  0  0  0  0  0  0  0  0  0  0
   -8.6120    3.1055   -9.4922 C   0  0  0  0  0  0  0  0  0  0  0  0
   -8.4587    3.0912  -10.8761 C   0  0  0  0  0  0  0  0  0  0  0  0
   -9.0331    2.0035   -8.5673 C   0  0  0  0  0  0  0  0  0  0  0  0
   -8.9157    2.5630   -7.2034 N   0  0  0  0  0  0  0  0  0  0  0  0
  -10.0105    2.2101   -6.3246 C   0  0  0  0  0  0  0  0  0  0  0  0
   -8.6547    4.0025   -7.3035 C   0  0  0  0  0  0  0  0  0  0  0  0
   -8.2294    4.4607  -16.0775 C   0  0  0  0  0  0  0  0  0  0  0  0
   -7.9575    4.3024  -17.4497 C   0  0  0  0  0  0  0  0  0  0  0  0
   -8.9486    3.8440  -18.4883 C   0  0  0  0  0  0  0  0  0  0  0  0
   -9.5240    2.4650  -18.3818 C   0  0  0  0  0  0  0  0  0  0  0  0
  -10.4163    3.6769  -18.2778 C   0  0  0  0  0  0  0  0  0  0  0  0
   -6.7647    4.6202  -17.9952 N   0  0  0  0  0  0  0  0  0  0  0  0
   -5.8684    5.1468  -17.1592 C   0  0  0  0  0  0  0  0  0  0  0  0
  1  2  1  0
  2  3  1  0
  2  4  1  0
  4  5  1  0
  5  6  2  0
  6  7  1  0
  7  8  2  0
  8  9  1  0
  9 10  2  0
  9 11  1  0
 11 12  1  0
 12 13  2  0
 13 14  1  0
 14 15  2  0
 15 16  1  0
 16 17  2  0
 16 18  1  0
 18 19  1  0
 19 20  1  0
 19 21  1  0
  8 22  1  0
 22 23  2  0
 23 24  1  0
 24 25  1  0
 25 26  1  0
 23 27  1  0
 27 28  2  0
 28  4  1  0
 28  7  1  0
 17 12  1  0
 26 24  1  0
 21 15  1  0
M  END
>  <name>  (538) 
P125206

>  <alias>  (538) 
None

>  <smina_score_min>  (538) 
-9.461

>  <exports>  (538) 
['/opt/xchem-fragalysis-2/maxwin/BulkDock/OUTPUTS/openbind_xx01zvns2b_c2_elabs_1LOUTNY.sdf', '/opt/xchem-fragalysis-2/maxwin/BulkDock/OUTPUTS/openbind_xx01zvns2b_c2_elabs_1LSYIIV.sdf']

>  <tags>  (538) 
syndirella_placed,openbind_xx01zvns2b_c2_elabs,openbind_xx01zvns2b_c2_elabs_scored_6.2plus,syndirella_product,openbind_xx01zvns2b_c2_elabs_scored,openbind_xx01zvns2b_c2_elabs_scored_top80percent,BulkDock Fragalysis export

>  <subsites>  (538) 
1 - Z4590/B/203/1

>  <smiles>  (538) 
CC(C)n1ncc2c(C(=O)Nc3ccc4c(c3)CN(C)C4)cc(C3CC3)nc21

>  <HIPPO Pose ID>  (538) 
125206

>  <energy_score>  (538) 
-30.480449

>  <inchikey>  (538) 
UMPVGWHQLSZZQW-UHFFFAOYSA-N

>  <gnina_score_min>  (538) 
6.333

>  <gnina_score>  (538) 
6.218

>  <ref_mols>  (538) 
Z3559a

>  <HIPPO Compound ID>  (538) 
177966

>  <distance_score>  (538) 
0.615705

>  <rmsd(smina/fragmenstein)>  (538) 
0.736

>  <ref_pdb>  (538) 
Z3559a

>  <inspiration_score>  (538) 
None

$$$$
P125211
     RDKit          3D

 28 32  0  0  0  0  0  0  0  0999 V2000
   -4.1220    6.2744  -14.3239 C   0  0  0  0  0  0  0  0  0  0  0  0
   -4.8025    5.8308  -15.5670 C   0  0  0  0  0  0  0  0  0  0  0  0
   -4.1583    5.9310  -16.7433 N   0  0  0  0  0  0  0  0  0  0  0  0
   -5.0469    5.4407  -17.6339 N   0  0  0  0  0  0  0  0  0  0  0  0
   -4.7355    5.4481  -19.0410 C   0  0  0  0  0  0  0  0  0  0  0  0
   -6.2174    5.0274  -17.0693 C   0  0  0  0  0  0  0  0  0  0  0  0
   -7.2690    4.5117  -17.7188 N   0  0  0  0  0  0  0  0  0  0  0  0
   -8.3493    4.2347  -16.9549 C   0  0  0  0  0  0  0  0  0  0  0  0
   -9.6021    3.7679  -17.6635 C   0  0  0  0  0  0  0  0  0  0  0  0
   -9.7705    3.9731  -19.1493 C   0  0  0  0  0  0  0  0  0  0  0  0
   -9.5327    2.5952  -18.6105 C   0  0  0  0  0  0  0  0  0  0  0  0
   -8.3611    4.4420  -15.5709 C   0  0  0  0  0  0  0  0  0  0  0  0
   -7.2377    4.9820  -14.9317 C   0  0  0  0  0  0  0  0  0  0  0  0
   -7.2847    5.3917  -13.5109 C   0  0  0  0  0  0  0  0  0  0  0  0
   -6.9407    6.4798  -13.2613 O   0  0  0  0  0  0  0  0  0  0  0  0
   -7.7509    4.2466  -12.5765 N   0  0  0  0  0  0  0  0  0  0  0  0
   -7.9743    4.2345  -11.1893 C   0  0  0  0  0  0  0  0  0  0  0  0
   -8.5891    3.1077  -10.6266 C   0  0  0  0  0  0  0  0  0  0  0  0
   -8.7702    3.0868   -9.2499 C   0  0  0  0  0  0  0  0  0  0  0  0
   -8.3499    4.1194   -8.4131 C   0  0  0  0  0  0  0  0  0  0  0  0
   -7.7534    5.2389   -8.9509 C   0  0  0  0  0  0  0  0  0  0  0  0
   -7.5708    5.2882  -10.3370 C   0  0  0  0  0  0  0  0  0  0  0  0
   -6.9464    6.3731  -10.8101 F   0  0  0  0  0  0  0  0  0  0  0  0
   -8.6435    3.7840   -6.9910 C   0  0  0  0  0  0  0  0  0  0  0  0
   -9.3203    2.5230   -7.0989 N   0  0  0  0  0  0  0  0  0  0  0  0
   -9.4092    2.0746   -8.3993 C   0  0  0  0  0  0  0  0  0  0  0  0
   -9.9536    1.0601   -8.7755 O   0  0  0  0  0  0  0  0  0  0  0  0
   -6.1113    5.2867  -15.7154 C   0  0  0  0  0  0  0  0  0  0  0  0
  1  2  1  0
  2  3  2  0
  3  4  1  0
  4  5  1  0
  4  6  1  0
  6  7  2  0
  7  8  1  0
  8  9  1  0
  9 10  1  0
 10 11  1  0
  8 12  2  0
 12 13  1  0
 13 14  1  0
 14 15  2  0
 14 16  1  0
 16 17  1  0
 17 18  2  0
 18 19  1  0
 19 20  2  0
 20 21  1  0
 21 22  2  0
 22 23  1  0
 20 24  1  0
 24 25  1  0
 25 26  1  0
 26 27  2  0
 13 28  2  0
 28  2  1  0
 28  6  1  0
 11  9  1  0
 22 17  1  0
 26 19  1  0
M  END
>  <name>  (539) 
P125211

>  <alias>  (539) 
None

>  <smina_score_min>  (539) 
-9.199

>  <exports>  (539) 
['/opt/xchem-fragalysis-2/maxwin/BulkDock/OUTPUTS/openbind_xx01zvns2b_c2_elabs_1LOUTNY.sdf', '/opt/xchem-fragalysis-2/maxwin/BulkDock/OUTPUTS/openbind_xx01zvns2b_c2_elabs_1LSYIIV.sdf']

>  <tags>  (539) 
syndirella_placed,openbind_xx01zvns2b_c2_elabs,openbind_xx01zvns2b_c2_elabs_scored_6.2plus,syndirella_product,openbind_xx01zvns2b_c2_elabs_scored,openbind_xx01zvns2b_c2_elabs_scored_top80percent,BulkDock Fragalysis export

>  <subsites>  (539) 
1 - Z4590/B/203/1

>  <smiles>  (539) 
Cc1nn(C)c2nc(C3CC3)cc(C(=O)Nc3cc4c(cc3F)CNC4=O)c12

>  <HIPPO Pose ID>  (539) 
125211

>  <energy_score>  (539) 
-29.277024

>  <inchikey>  (539) 
YQRJNVXSVOPDCK-UHFFFAOYSA-N

>  <gnina_score_min>  (539) 
6.324

>  <gnina_score>  (539) 
6.275

>  <ref_mols>  (539) 
Z3559a

>  <HIPPO Compound ID>  (539) 
178004

>  <distance_score>  (539) 
0.359714

>  <rmsd(smina/fragmenstein)>  (539) 
0.783

>  <ref_pdb>  (539) 
Z3559a

>  <inspiration_score>  (539) 
None

$$$$
P125212
     RDKit          3D

 28 32  0  0  0  0  0  0  0  0999 V2000
   -3.5893    6.2201  -14.5747 C   0  0  0  0  0  0  0  0  0  0  0  0
   -4.3822    5.8064  -15.7604 C   0  0  0  0  0  0  0  0  0  0  0  0
   -3.8256    5.8710  -16.9819 N   0  0  0  0  0  0  0  0  0  0  0  0
   -4.8042    5.4382  -17.8045 N   0  0  0  0  0  0  0  0  0  0  0  0
   -4.6084    5.4497  -19.2326 C   0  0  0  0  0  0  0  0  0  0  0  0
   -5.9432    5.0713  -17.1511 C   0  0  0  0  0  0  0  0  0  0  0  0
   -7.0504    4.5762  -17.7217 N   0  0  0  0  0  0  0  0  0  0  0  0
   -8.1008    4.3752  -16.8935 C   0  0  0  0  0  0  0  0  0  0  0  0
   -9.3889    3.8620  -17.5450 C   0  0  0  0  0  0  0  0  0  0  0  0
   -9.3256    2.7406  -18.5600 C   0  0  0  0  0  0  0  0  0  0  0  0
   -9.6767    4.1261  -19.0047 C   0  0  0  0  0  0  0  0  0  0  0  0
   -8.0074    4.6803  -15.5204 C   0  0  0  0  0  0  0  0  0  0  0  0
   -9.4205    4.7225  -14.5450 Cl  0  0  0  0  0  0  0  0  0  0  0  0
   -6.7945    5.0980  -14.9402 C   0  0  0  0  0  0  0  0  0  0  0  0
   -6.6996    5.4426  -13.4938 C   0  0  0  0  0  0  0  0  0  0  0  0
   -6.3081    6.5060  -13.2053 O   0  0  0  0  0  0  0  0  0  0  0  0
   -7.2590    4.2997  -12.6023 N   0  0  0  0  0  0  0  0  0  0  0  0
   -7.5303    4.2681  -11.2330 C   0  0  0  0  0  0  0  0  0  0  0  0
   -7.2689    5.3722  -10.4040 C   0  0  0  0  0  0  0  0  0  0  0  0
   -7.5746    5.3291   -9.0386 C   0  0  0  0  0  0  0  0  0  0  0  0
   -8.1365    4.1685   -8.5434 C   0  0  0  0  0  0  0  0  0  0  0  0
   -8.4160    3.0696   -9.3495 C   0  0  0  0  0  0  0  0  0  0  0  0
   -8.1240    3.1083  -10.7045 C   0  0  0  0  0  0  0  0  0  0  0  0
   -8.9788    1.9657   -8.5167 C   0  0  0  0  0  0  0  0  0  0  0  0
   -9.0771    2.5718   -7.2046 N   0  0  0  0  0  0  0  0  0  0  0  0
   -8.4973    3.8221   -7.1628 C   0  0  0  0  0  0  0  0  0  0  0  0
   -8.2848    4.5095   -6.1817 O   0  0  0  0  0  0  0  0  0  0  0  0
   -5.7234    5.3351  -15.8092 C   0  0  0  0  0  0  0  0  0  0  0  0
  1  2  1  0
  2  3  2  0
  3  4  1  0
  4  5  1  0
  4  6  1  0
  6  7  2  0
  7  8  1  0
  8  9  1  0
  9 10  1  0
 10 11  1  0
  8 12  2  0
 12 13  1  0
 12 14  1  0
 14 15  1  0
 15 16  2  0
 15 17  1  0
 17 18  1  0
 18 19  2  0
 19 20  1  0
 20 21  2  0
 21 22  1  0
 22 23  2  0
 22 24  1  0
 24 25  1  0
 25 26  1  0
 26 27  2  0
 14 28  2  0
 28  2  1  0
 28  6  1  0
 11  9  1  0
 23 18  1  0
 26 21  1  0
M  END
>  <name>  (540) 
P125212

>  <alias>  (540) 
None

>  <smina_score_min>  (540) 
-8.032

>  <exports>  (540) 
['/opt/xchem-fragalysis-2/maxwin/BulkDock/OUTPUTS/openbind_xx01zvns2b_c2_elabs_1LOUTNY.sdf', '/opt/xchem-fragalysis-2/maxwin/BulkDock/OUTPUTS/openbind_xx01zvns2b_c2_elabs_1LSYIIV.sdf']

>  <tags>  (540) 
syndirella_placed,openbind_xx01zvns2b_c2_elabs,openbind_xx01zvns2b_c2_elabs_scored_6.2plus,syndirella_product,openbind_xx01zvns2b_c2_elabs_scored,openbind_xx01zvns2b_c2_elabs_scored_top80percent,BulkDock Fragalysis export

>  <subsites>  (540) 
1 - Z4590/B/203/1

>  <smiles>  (540) 
Cc1nn(C)c2nc(C3CC3)c(Cl)c(C(=O)Nc3ccc4c(c3)CNC4=O)c12

>  <HIPPO Pose ID>  (540) 
125212

>  <energy_score>  (540) 
-42.998371

>  <inchikey>  (540) 
WTZARALHZGPYFQ-UHFFFAOYSA-N

>  <gnina_score_min>  (540) 
6.234

>  <gnina_score>  (540) 
6.274

>  <ref_mols>  (540) 
Z3559a

>  <HIPPO Compound ID>  (540) 
177971

>  <distance_score>  (540) 
0.566848

>  <rmsd(smina/fragmenstein)>  (540) 
0.643

>  <ref_pdb>  (540) 
Z3559a

>  <inspiration_score>  (540) 
None

$$$$
P125215
     RDKit          3D

 28 32  0  0  0  0  0  0  0  0999 V2000
   -3.5754    6.2255  -14.5857 C   0  0  0  0  0  0  0  0  0  0  0  0
   -4.3735    5.8118  -15.7679 C   0  0  0  0  0  0  0  0  0  0  0  0
   -3.8237    5.8827  -16.9919 N   0  0  0  0  0  0  0  0  0  0  0  0
   -4.8005    5.4382  -17.8092 N   0  0  0  0  0  0  0  0  0  0  0  0
   -4.6073    5.4459  -19.2373 C   0  0  0  0  0  0  0  0  0  0  0  0
   -5.9365    5.0682  -17.1523 C   0  0  0  0  0  0  0  0  0  0  0  0
   -7.0438    4.5689  -17.7193 N   0  0  0  0  0  0  0  0  0  0  0  0
   -8.0919    4.3698  -16.8867 C   0  0  0  0  0  0  0  0  0  0  0  0
   -9.3821    3.8564  -17.5349 C   0  0  0  0  0  0  0  0  0  0  0  0
   -9.6794    4.1296  -18.9913 C   0  0  0  0  0  0  0  0  0  0  0  0
   -9.3212    2.7423  -18.5582 C   0  0  0  0  0  0  0  0  0  0  0  0
   -7.9962    4.6793  -15.5138 C   0  0  0  0  0  0  0  0  0  0  0  0
   -9.4123    4.7339  -14.5424 Cl  0  0  0  0  0  0  0  0  0  0  0  0
   -6.7816    5.0999  -14.9379 C   0  0  0  0  0  0  0  0  0  0  0  0
   -6.6859    5.4673  -13.4973 C   0  0  0  0  0  0  0  0  0  0  0  0
   -6.2808    6.5306  -13.2274 O   0  0  0  0  0  0  0  0  0  0  0  0
   -7.2618    4.3489  -12.5867 N   0  0  0  0  0  0  0  0  0  0  0  0
   -7.5361    4.3458  -11.2179 C   0  0  0  0  0  0  0  0  0  0  0  0
   -7.3427    5.4899  -10.4304 C   0  0  0  0  0  0  0  0  0  0  0  0
   -7.6878    5.4935   -9.0737 C   0  0  0  0  0  0  0  0  0  0  0  0
   -8.2203    4.3407   -8.5253 C   0  0  0  0  0  0  0  0  0  0  0  0
   -8.4255    3.2050   -9.3036 C   0  0  0  0  0  0  0  0  0  0  0  0
   -8.0946    3.1905  -10.6516 C   0  0  0  0  0  0  0  0  0  0  0  0
   -9.0456    2.1326   -8.4600 C   0  0  0  0  0  0  0  0  0  0  0  0
   -8.9533    2.6396   -7.0738 N   0  0  0  0  0  0  0  0  0  0  0  0
  -10.0709    2.2666   -6.2339 C   0  0  0  0  0  0  0  0  0  0  0  0
   -8.6747    4.0786   -7.1249 C   0  0  0  0  0  0  0  0  0  0  0  0
   -5.7136    5.3358  -15.8115 C   0  0  0  0  0  0  0  0  0  0  0  0
  1  2  1  0
  2  3  2  0
  3  4  1  0
  4  5  1  0
  4  6  1  0
  6  7  2  0
  7  8  1  0
  8  9  1  0
  9 10  1  0
 10 11  1  0
  8 12  2  0
 12 13  1  0
 12 14  1  0
 14 15  1  0
 15 16  2  0
 15 17  1  0
 17 18  1  0
 18 19  2  0
 19 20  1  0
 20 21  2  0
 21 22  1  0
 22 23  2  0
 22 24  1  0
 24 25  1  0
 25 26  1  0
 25 27  1  0
 14 28  2  0
 28  2  1  0
 28  6  1  0
 11  9  1  0
 23 18  1  0
 27 21  1  0
M  END
>  <name>  (541) 
P125215

>  <alias>  (541) 
None

>  <smina_score_min>  (541) 
-8.213

>  <exports>  (541) 
['/opt/xchem-fragalysis-2/maxwin/BulkDock/OUTPUTS/openbind_xx01zvns2b_c2_elabs_1LOUTNY.sdf', '/opt/xchem-fragalysis-2/maxwin/BulkDock/OUTPUTS/openbind_xx01zvns2b_c2_elabs_1LSYIIV.sdf']

>  <tags>  (541) 
syndirella_placed,openbind_xx01zvns2b_c2_elabs,openbind_xx01zvns2b_c2_elabs_scored_6.2plus,syndirella_product,openbind_xx01zvns2b_c2_elabs_scored,openbind_xx01zvns2b_c2_elabs_scored_top80percent,BulkDock Fragalysis export

>  <subsites>  (541) 
1 - Z4590/B/203/1

>  <smiles>  (541) 
Cc1nn(C)c2nc(C3CC3)c(Cl)c(C(=O)Nc3ccc4c(c3)CN(C)C4)c12

>  <HIPPO Pose ID>  (541) 
125215

>  <energy_score>  (541) 
-49.612806

>  <inchikey>  (541) 
DJVUORPFKDTYFB-UHFFFAOYSA-N

>  <gnina_score_min>  (541) 
6.346

>  <gnina_score>  (541) 
6.35

>  <ref_mols>  (541) 
Z3559a

>  <HIPPO Compound ID>  (541) 
177967

>  <distance_score>  (541) 
0.57963

>  <rmsd(smina/fragmenstein)>  (541) 
0.367

>  <ref_pdb>  (541) 
Z3559a

>  <inspiration_score>  (541) 
None

$$$$
P125216
     RDKit          3D

 28 32  0  0  0  0  0  0  0  0999 V2000
   -5.5699    5.5459  -19.9048 C   0  0  0  0  0  0  0  0  0  0  0  0
   -4.5155    5.5681  -18.8187 C   0  0  0  0  0  0  0  0  0  0  0  0
   -4.9789    5.5235  -17.4471 N   0  0  0  0  0  0  0  0  0  0  0  0
   -4.1384    5.9877  -16.4883 N   0  0  0  0  0  0  0  0  0  0  0  0
   -4.8452    5.8534  -15.3625 C   0  0  0  0  0  0  0  0  0  0  0  0
   -6.1201    5.2896  -15.5769 C   0  0  0  0  0  0  0  0  0  0  0  0
   -7.2498    4.9482  -14.8167 C   0  0  0  0  0  0  0  0  0  0  0  0
   -7.2720    5.3006  -13.3729 C   0  0  0  0  0  0  0  0  0  0  0  0
   -6.7436    6.3002  -13.0751 O   0  0  0  0  0  0  0  0  0  0  0  0
   -7.9866    4.2416  -12.4946 N   0  0  0  0  0  0  0  0  0  0  0  0
   -8.1116    4.1492  -11.1050 C   0  0  0  0  0  0  0  0  0  0  0  0
   -7.6118    5.1878  -10.2869 C   0  0  0  0  0  0  0  0  0  0  0  0
   -7.6605    5.1067   -8.8909 C   0  0  0  0  0  0  0  0  0  0  0  0
   -8.2308    3.9773   -8.3467 C   0  0  0  0  0  0  0  0  0  0  0  0
   -8.7599    2.9734   -9.1387 C   0  0  0  0  0  0  0  0  0  0  0  0
   -8.7075    3.0232  -10.5246 C   0  0  0  0  0  0  0  0  0  0  0  0
   -9.3304    1.9771   -8.2291 C   0  0  0  0  0  0  0  0  0  0  0  0
   -9.9739    1.0062   -8.5665 O   0  0  0  0  0  0  0  0  0  0  0  0
   -9.0589    2.3975   -6.9612 N   0  0  0  0  0  0  0  0  0  0  0  0
   -8.3885    3.5796   -6.9464 C   0  0  0  0  0  0  0  0  0  0  0  0
   -7.9638    4.2030   -5.9904 O   0  0  0  0  0  0  0  0  0  0  0  0
   -8.3499    4.4190  -15.4991 C   0  0  0  0  0  0  0  0  0  0  0  0
   -8.3022    4.2492  -16.8902 C   0  0  0  0  0  0  0  0  0  0  0  0
   -9.5404    3.7841  -17.6319 C   0  0  0  0  0  0  0  0  0  0  0  0
   -9.4497    2.6292  -18.5989 C   0  0  0  0  0  0  0  0  0  0  0  0
   -9.6890    4.0146  -19.1162 C   0  0  0  0  0  0  0  0  0  0  0  0
   -7.2057    4.5569  -17.6251 N   0  0  0  0  0  0  0  0  0  0  0  0
   -6.1724    5.0723  -16.9424 C   0  0  0  0  0  0  0  0  0  0  0  0
  1  2  1  0
  2  3  1  0
  3  4  1  0
  4  5  2  0
  5  6  1  0
  6  7  2  0
  7  8  1  0
  8  9  2  0
  8 10  1  0
 10 11  1  0
 11 12  2  0
 12 13  1  0
 13 14  2  0
 14 15  1  0
 15 16  2  0
 15 17  1  0
 17 18  2  0
 17 19  1  0
 19 20  1  0
 20 21  2  0
  7 22  1  0
 22 23  2  0
 23 24  1  0
 24 25  1  0
 25 26  1  0
 23 27  1  0
 27 28  2  0
 28  3  1  0
 28  6  1  0
 16 11  1  0
 26 24  1  0
 20 14  1  0
M  END
>  <name>  (542) 
P125216

>  <alias>  (542) 
None

>  <smina_score_min>  (542) 
-9.173

>  <exports>  (542) 
['/opt/xchem-fragalysis-2/maxwin/BulkDock/OUTPUTS/openbind_xx01zvns2b_c2_elabs_1LOUTNY.sdf', '/opt/xchem-fragalysis-2/maxwin/BulkDock/OUTPUTS/openbind_xx01zvns2b_c2_elabs_1LSYIIV.sdf']

>  <tags>  (542) 
syndirella_placed,openbind_xx01zvns2b_c2_elabs,openbind_xx01zvns2b_c2_elabs_scored_6.2plus,syndirella_product,openbind_xx01zvns2b_c2_elabs_scored,openbind_xx01zvns2b_c2_elabs_scored_top80percent,BulkDock Fragalysis export

>  <subsites>  (542) 
1 - Z4590/B/203/1

>  <smiles>  (542) 
CCn1ncc2c(C(=O)Nc3ccc4c(c3)C(=O)NC4=O)cc(C3CC3)nc21

>  <HIPPO Pose ID>  (542) 
125216

>  <energy_score>  (542) 
-24.19621

>  <inchikey>  (542) 
YMUWXNQDFBDLKL-UHFFFAOYSA-N

>  <gnina_score_min>  (542) 
6.268

>  <gnina_score>  (542) 
6.1

>  <ref_mols>  (542) 
Z3559a

>  <HIPPO Compound ID>  (542) 
177948

>  <distance_score>  (542) 
0.366687

>  <rmsd(smina/fragmenstein)>  (542) 
0.93

>  <ref_pdb>  (542) 
Z3559a

>  <inspiration_score>  (542) 
None

$$$$
P125223
     RDKit          3D

 29 33  0  0  0  0  0  0  0  0999 V2000
  -10.8704    2.9255   -5.4438 C   0  0  0  0  0  0  0  0  0  0  0  0
   -9.6313    2.2817   -6.0326 C   0  0  0  0  0  0  0  0  0  0  0  0
   -9.2180    2.9107   -7.2577 N   0  0  0  0  0  0  0  0  0  0  0  0
   -9.1468    2.1889   -8.5196 C   0  0  0  0  0  0  0  0  0  0  0  0
   -8.5880    3.2267   -9.4353 C   0  0  0  0  0  0  0  0  0  0  0  0
   -8.3870    3.1943  -10.8040 C   0  0  0  0  0  0  0  0  0  0  0  0
   -7.8544    4.3372  -11.4142 C   0  0  0  0  0  0  0  0  0  0  0  0
   -7.6372    4.3328  -12.7869 N   0  0  0  0  0  0  0  0  0  0  0  0
   -7.0411    5.4169  -13.7120 C   0  0  0  0  0  0  0  0  0  0  0  0
   -6.5682    6.4532  -13.4564 O   0  0  0  0  0  0  0  0  0  0  0  0
   -7.0886    5.0143  -15.1309 C   0  0  0  0  0  0  0  0  0  0  0  0
   -8.2334    4.4594  -15.7134 C   0  0  0  0  0  0  0  0  0  0  0  0
   -8.2742    4.2323  -17.0929 C   0  0  0  0  0  0  0  0  0  0  0  0
   -9.5566    3.7484  -17.7303 C   0  0  0  0  0  0  0  0  0  0  0  0
   -9.5280    2.5602  -18.6576 C   0  0  0  0  0  0  0  0  0  0  0  0
   -9.7984    3.9287  -19.2072 C   0  0  0  0  0  0  0  0  0  0  0  0
   -7.2247    4.5001  -17.9062 N   0  0  0  0  0  0  0  0  0  0  0  0
   -6.1546    5.0401  -17.3058 C   0  0  0  0  0  0  0  0  0  0  0  0
   -6.0086    5.3218  -15.9627 C   0  0  0  0  0  0  0  0  0  0  0  0
   -4.7245    5.8975  -15.8613 C   0  0  0  0  0  0  0  0  0  0  0  0
   -4.1001    5.9851  -17.0421 N   0  0  0  0  0  0  0  0  0  0  0  0
   -5.0021    5.4632  -17.9074 N   0  0  0  0  0  0  0  0  0  0  0  0
   -4.7241    5.4473  -19.3281 C   0  0  0  0  0  0  0  0  0  0  0  0
   -5.0386    6.7789  -19.9850 C   0  0  0  0  0  0  0  0  0  0  0  0
   -7.5364    5.4813  -10.6557 C   0  0  0  0  0  0  0  0  0  0  0  0
   -7.7389    5.5067   -9.2790 C   0  0  0  0  0  0  0  0  0  0  0  0
   -8.2602    4.3694   -8.7052 C   0  0  0  0  0  0  0  0  0  0  0  0
   -8.6117    4.1469   -7.3048 C   0  0  0  0  0  0  0  0  0  0  0  0
   -8.4073    4.9370   -6.4016 O   0  0  0  0  0  0  0  0  0  0  0  0
  1  2  1  0
  2  3  1  0
  3  4  1  0
  4  5  1  0
  5  6  2  0
  6  7  1  0
  7  8  1  0
  8  9  1  0
  9 10  2  0
  9 11  1  0
 11 12  2  0
 12 13  1  0
 13 14  1  0
 14 15  1  0
 15 16  1  0
 13 17  2  0
 17 18  1  0
 18 19  2  0
 19 20  1  0
 20 21  2  0
 21 22  1  0
 22 23  1  0
 23 24  1  0
  7 25  2  0
 25 26  1  0
 26 27  2  0
 27 28  1  0
 28 29  2  0
 28  3  1  0
 27  5  1  0
 19 11  1  0
 16 14  1  0
 22 18  1  0
M  END
>  <name>  (543) 
P125223

>  <alias>  (543) 
None

>  <smina_score_min>  (543) 
-8.997

>  <exports>  (543) 
['/opt/xchem-fragalysis-2/maxwin/BulkDock/OUTPUTS/openbind_xx01zvns2b_c2_elabs_1LOUTNY.sdf', '/opt/xchem-fragalysis-2/maxwin/BulkDock/OUTPUTS/openbind_xx01zvns2b_c2_elabs_1LSYIIV.sdf']

>  <tags>  (543) 
syndirella_placed,openbind_xx01zvns2b_c2_elabs,openbind_xx01zvns2b_c2_elabs_scored_6.2plus,syndirella_product,openbind_xx01zvns2b_c2_elabs_scored,openbind_xx01zvns2b_c2_elabs_scored_top80percent,BulkDock Fragalysis export

>  <subsites>  (543) 
1 - Z4590/B/203/1

>  <smiles>  (543) 
CCN1Cc2cc(NC(=O)c3cc(C4CC4)nc4c3cnn4CC)ccc2C1=O

>  <HIPPO Pose ID>  (543) 
125223

>  <energy_score>  (543) 
-36.916813

>  <inchikey>  (543) 
VFSYWMPEWXITRX-UHFFFAOYSA-N

>  <gnina_score_min>  (543) 
6.26

>  <gnina_score>  (543) 
6.251

>  <ref_mols>  (543) 
Z3559a

>  <HIPPO Compound ID>  (543) 
178228

>  <distance_score>  (543) 
0.453561

>  <rmsd(smina/fragmenstein)>  (543) 
0.337

>  <ref_pdb>  (543) 
Z3559a

>  <inspiration_score>  (543) 
None

$$$$
P125228
     RDKit          3D

 29 33  0  0  0  0  0  0  0  0999 V2000
   -5.0722    6.7610  -19.6871 C   0  0  0  0  0  0  0  0  0  0  0  0
   -4.7184    5.4486  -19.0115 C   0  0  0  0  0  0  0  0  0  0  0  0
   -5.0372    5.4595  -17.5983 N   0  0  0  0  0  0  0  0  0  0  0  0
   -4.1662    5.9818  -16.7013 N   0  0  0  0  0  0  0  0  0  0  0  0
   -4.8421    5.9062  -15.5457 C   0  0  0  0  0  0  0  0  0  0  0  0
   -6.1204    5.3220  -15.6891 C   0  0  0  0  0  0  0  0  0  0  0  0
   -7.2393    5.0234  -14.8998 C   0  0  0  0  0  0  0  0  0  0  0  0
   -7.2896    5.4967  -13.4962 C   0  0  0  0  0  0  0  0  0  0  0  0
   -6.8982    6.5787  -13.2900 O   0  0  0  0  0  0  0  0  0  0  0  0
   -7.9163    4.4557  -12.5354 N   0  0  0  0  0  0  0  0  0  0  0  0
   -8.0981    4.4931  -11.1496 C   0  0  0  0  0  0  0  0  0  0  0  0
   -7.8876    5.6861  -10.4398 C   0  0  0  0  0  0  0  0  0  0  0  0
   -8.0578    5.7442   -9.0515 C   0  0  0  0  0  0  0  0  0  0  0  0
   -8.4337    4.5948   -8.3758 C   0  0  0  0  0  0  0  0  0  0  0  0
   -8.6424    3.4096   -9.0807 C   0  0  0  0  0  0  0  0  0  0  0  0
   -8.4923    3.3400  -10.4649 C   0  0  0  0  0  0  0  0  0  0  0  0
   -9.0286    2.3236   -8.1303 C   0  0  0  0  0  0  0  0  0  0  0  0
   -8.8902    2.9067   -6.7692 N   0  0  0  0  0  0  0  0  0  0  0  0
   -9.9966    2.5071   -5.9166 C   0  0  0  0  0  0  0  0  0  0  0  0
   -8.5797    4.3557   -6.8877 C   0  0  0  0  0  0  0  0  0  0  0  0
   -9.5631    5.3101   -6.1808 C   0  0  0  0  0  0  0  0  0  0  0  0
   -7.2101    4.6247   -6.2317 C   0  0  0  0  0  0  0  0  0  0  0  0
   -8.3530    4.4592  -15.5365 C   0  0  0  0  0  0  0  0  0  0  0  0
   -8.3333    4.2288  -16.9193 C   0  0  0  0  0  0  0  0  0  0  0  0
   -9.5846    3.7586  -17.6296 C   0  0  0  0  0  0  0  0  0  0  0  0
   -9.7628    3.9887  -19.1113 C   0  0  0  0  0  0  0  0  0  0  0  0
   -9.5106    2.6037  -18.5982 C   0  0  0  0  0  0  0  0  0  0  0  0
   -7.2489    4.4945  -17.6833 N   0  0  0  0  0  0  0  0  0  0  0  0
   -6.2078    5.0331  -17.0367 C   0  0  0  0  0  0  0  0  0  0  0  0
  1  2  1  0
  2  3  1  0
  3  4  1  0
  4  5  2  0
  5  6  1  0
  6  7  2  0
  7  8  1  0
  8  9  2  0
  8 10  1  0
 10 11  1  0
 11 12  2  0
 12 13  1  0
 13 14  2  0
 14 15  1  0
 15 16  2  0
 15 17  1  0
 17 18  1  0
 18 19  1  0
 18 20  1  0
 20 21  1  0
 20 22  1  0
  7 23  1  0
 23 24  2  0
 24 25  1  0
 25 26  1  0
 26 27  1  0
 24 28  1  0
 28 29  2  0
 29  3  1  0
 29  6  1  0
 16 11  1  0
 27 25  1  0
 20 14  1  0
M  END
>  <name>  (544) 
P125228

>  <alias>  (544) 
None

>  <smina_score_min>  (544) 
-8.522

>  <exports>  (544) 
['/opt/xchem-fragalysis-2/maxwin/BulkDock/OUTPUTS/openbind_xx01zvns2b_c2_elabs_1LOUTNY.sdf', '/opt/xchem-fragalysis-2/maxwin/BulkDock/OUTPUTS/openbind_xx01zvns2b_c2_elabs_1LSYIIV.sdf']

>  <tags>  (544) 
syndirella_placed,openbind_xx01zvns2b_c2_elabs,openbind_xx01zvns2b_c2_elabs_scored_6.2plus,syndirella_product,openbind_xx01zvns2b_c2_elabs_scored,openbind_xx01zvns2b_c2_elabs_scored_top80percent,BulkDock Fragalysis export

>  <subsites>  (544) 
1 - Z4590/B/203/1

>  <smiles>  (544) 
CCn1ncc2c(C(=O)Nc3ccc4c(c3)CN(C)C4(C)C)cc(C3CC3)nc21

>  <HIPPO Pose ID>  (544) 
125228

>  <energy_score>  (544) 
-69.026531

>  <inchikey>  (544) 
MXJHDIQKOLLGFL-UHFFFAOYSA-N

>  <gnina_score_min>  (544) 
6.247

>  <gnina_score>  (544) 
6.263

>  <ref_mols>  (544) 
Z3559a

>  <HIPPO Compound ID>  (544) 
178231

>  <distance_score>  (544) 
0.475463

>  <rmsd(smina/fragmenstein)>  (544) 
0.748

>  <ref_pdb>  (544) 
Z3559a

>  <inspiration_score>  (544) 
None

$$$$
P125230
     RDKit          3D

 29 33  0  0  0  0  0  0  0  0999 V2000
   -4.6984    6.7566  -21.1902 C   0  0  0  0  0  0  0  0  0  0  0  0
   -5.0770    6.7733  -19.7185 C   0  0  0  0  0  0  0  0  0  0  0  0
   -4.7083    5.4606  -19.0350 C   0  0  0  0  0  0  0  0  0  0  0  0
   -5.0401    5.4693  -17.6240 N   0  0  0  0  0  0  0  0  0  0  0  0
   -4.1695    5.9782  -16.7204 N   0  0  0  0  0  0  0  0  0  0  0  0
   -4.8354    5.8684  -15.5630 C   0  0  0  0  0  0  0  0  0  0  0  0
   -6.1152    5.2894  -15.7147 C   0  0  0  0  0  0  0  0  0  0  0  0
   -7.2229    4.9600  -14.9205 C   0  0  0  0  0  0  0  0  0  0  0  0
   -7.2156    5.3413  -13.4887 C   0  0  0  0  0  0  0  0  0  0  0  0
   -6.7638    6.3871  -13.2281 O   0  0  0  0  0  0  0  0  0  0  0  0
   -7.7842    4.2334  -12.5643 N   0  0  0  0  0  0  0  0  0  0  0  0
   -7.9954    4.2235  -11.1748 C   0  0  0  0  0  0  0  0  0  0  0  0
   -8.6187    3.1019  -10.6107 C   0  0  0  0  0  0  0  0  0  0  0  0
   -8.7865    3.0764   -9.2324 C   0  0  0  0  0  0  0  0  0  0  0  0
   -8.3531    4.1033   -8.3957 C   0  0  0  0  0  0  0  0  0  0  0  0
   -7.7530    5.2200   -8.9347 C   0  0  0  0  0  0  0  0  0  0  0  0
   -7.5792    5.2717  -10.3219 C   0  0  0  0  0  0  0  0  0  0  0  0
   -6.9744    6.3667  -10.7965 F   0  0  0  0  0  0  0  0  0  0  0  0
   -8.6415    3.7675   -6.9729 C   0  0  0  0  0  0  0  0  0  0  0  0
   -9.3236    2.5091   -7.0790 N   0  0  0  0  0  0  0  0  0  0  0  0
   -9.4206    2.0630   -8.3798 C   0  0  0  0  0  0  0  0  0  0  0  0
   -9.9655    1.0482   -8.7544 O   0  0  0  0  0  0  0  0  0  0  0  0
   -8.3441    4.4199  -15.5618 C   0  0  0  0  0  0  0  0  0  0  0  0
   -8.3360    4.2281  -16.9510 C   0  0  0  0  0  0  0  0  0  0  0  0
   -9.5907    3.7639  -17.6586 C   0  0  0  0  0  0  0  0  0  0  0  0
   -9.7627    3.9743  -19.1434 C   0  0  0  0  0  0  0  0  0  0  0  0
   -9.5242    2.5945  -18.6099 C   0  0  0  0  0  0  0  0  0  0  0  0
   -7.2590    4.5148  -17.7197 N   0  0  0  0  0  0  0  0  0  0  0  0
   -6.2124    5.0379  -17.0688 C   0  0  0  0  0  0  0  0  0  0  0  0
  1  2  1  0
  2  3  1  0
  3  4  1  0
  4  5  1  0
  5  6  2  0
  6  7  1  0
  7  8  2  0
  8  9  1  0
  9 10  2  0
  9 11  1  0
 11 12  1  0
 12 13  2  0
 13 14  1  0
 14 15  2  0
 15 16  1  0
 16 17  2  0
 17 18  1  0
 15 19  1  0
 19 20  1  0
 20 21  1  0
 21 22  2  0
  8 23  1  0
 23 24  2  0
 24 25  1  0
 25 26  1  0
 26 27  1  0
 24 28  1  0
 28 29  2  0
 29  4  1  0
 29  7  1  0
 17 12  1  0
 27 25  1  0
 21 14  1  0
M  END
>  <name>  (545) 
P125230

>  <alias>  (545) 
None

>  <smina_score_min>  (545) 
-8.488

>  <exports>  (545) 
['/opt/xchem-fragalysis-2/maxwin/BulkDock/OUTPUTS/openbind_xx01zvns2b_c2_elabs_1LOUTNY.sdf', '/opt/xchem-fragalysis-2/maxwin/BulkDock/OUTPUTS/openbind_xx01zvns2b_c2_elabs_1LSYIIV.sdf']

>  <tags>  (545) 
syndirella_placed,openbind_xx01zvns2b_c2_elabs,openbind_xx01zvns2b_c2_elabs_scored_6.2plus,syndirella_product,openbind_xx01zvns2b_c2_elabs_scored,openbind_xx01zvns2b_c2_elabs_scored_top80percent,BulkDock Fragalysis export

>  <subsites>  (545) 
1 - Z4590/B/203/1

>  <smiles>  (545) 
CCCn1ncc2c(C(=O)Nc3cc4c(cc3F)CNC4=O)cc(C3CC3)nc21

>  <HIPPO Pose ID>  (545) 
125230

>  <energy_score>  (545) 
-20.759025

>  <inchikey>  (545) 
LBNIINXCEXCYMO-UHFFFAOYSA-N

>  <gnina_score_min>  (545) 
6.325

>  <gnina_score>  (545) 
6.232

>  <ref_mols>  (545) 
Z3559a

>  <HIPPO Compound ID>  (545) 
178182

>  <distance_score>  (545) 
0.342354

>  <rmsd(smina/fragmenstein)>  (545) 
0.858

>  <ref_pdb>  (545) 
Z3559a

>  <inspiration_score>  (545) 
None

$$$$
P125231
     RDKit          3D

 29 34  0  0  0  0  0  0  0  0999 V2000
   -9.5195    1.8116   -6.3430 C   0  0  0  0  0  0  0  0  0  0  0  0
   -9.5922    2.6905   -7.4856 N   0  0  0  0  0  0  0  0  0  0  0  0
   -8.7435    3.8896   -7.3358 C   0  0  0  0  0  0  0  0  0  0  0  0
   -8.3781    4.2398   -8.7420 C   0  0  0  0  0  0  0  0  0  0  0  0
   -7.9002    5.4231   -9.2679 C   0  0  0  0  0  0  0  0  0  0  0  0
   -7.6735    5.4816  -10.6458 C   0  0  0  0  0  0  0  0  0  0  0  0
   -7.9034    4.3601  -11.4602 C   0  0  0  0  0  0  0  0  0  0  0  0
   -7.7157    4.4088  -12.8353 N   0  0  0  0  0  0  0  0  0  0  0  0
   -7.1892    5.5451  -13.7349 C   0  0  0  0  0  0  0  0  0  0  0  0
   -6.9025    6.6449  -13.4737 O   0  0  0  0  0  0  0  0  0  0  0  0
   -7.1373    5.1020  -15.1394 C   0  0  0  0  0  0  0  0  0  0  0  0
   -8.2709    4.5321  -15.7342 C   0  0  0  0  0  0  0  0  0  0  0  0
   -8.2799    4.2551  -17.1009 C   0  0  0  0  0  0  0  0  0  0  0  0
   -9.5507    3.7567  -17.7499 C   0  0  0  0  0  0  0  0  0  0  0  0
   -9.7722    3.9212  -19.2312 C   0  0  0  0  0  0  0  0  0  0  0  0
   -9.5079    2.5587  -18.6635 C   0  0  0  0  0  0  0  0  0  0  0  0
   -7.2087    4.4940  -17.8899 N   0  0  0  0  0  0  0  0  0  0  0  0
   -6.1462    5.0398  -17.2788 C   0  0  0  0  0  0  0  0  0  0  0  0
   -6.0210    5.3607  -15.9386 C   0  0  0  0  0  0  0  0  0  0  0  0
   -4.7157    5.8934  -15.8374 C   0  0  0  0  0  0  0  0  0  0  0  0
   -4.0553    6.4122  -14.5302 C   0  0  0  0  0  0  0  0  0  0  0  0
   -3.8028    5.4671  -13.3835 C   0  0  0  0  0  0  0  0  0  0  0  0
   -2.6504    5.9744  -14.1972 C   0  0  0  0  0  0  0  0  0  0  0  0
   -4.0763    5.9449  -17.0134 N   0  0  0  0  0  0  0  0  0  0  0  0
   -4.9827    5.4330  -17.8763 N   0  0  0  0  0  0  0  0  0  0  0  0
   -4.7019    5.4100  -19.2896 C   0  0  0  0  0  0  0  0  0  0  0  0
   -8.3617    3.1626  -10.9108 C   0  0  0  0  0  0  0  0  0  0  0  0
   -8.6076    3.1287   -9.5539 C   0  0  0  0  0  0  0  0  0  0  0  0
   -9.1371    2.0108   -8.7189 C   0  0  0  0  0  0  0  0  0  0  0  0
  1  2  1  0
  2  3  1  0
  3  4  1  0
  4  5  2  0
  5  6  1  0
  6  7  2  0
  7  8  1  0
  8  9  1  0
  9 10  2  0
  9 11  1  0
 11 12  2  0
 12 13  1  0
 13 14  1  0
 14 15  1  0
 15 16  1  0
 13 17  2  0
 17 18  1  0
 18 19  2  0
 19 20  1  0
 20 21  1  0
 21 22  1  0
 22 23  1  0
 20 24  2  0
 24 25  1  0
 25 26  1  0
  7 27  1  0
 27 28  2  0
 28 29  1  0
 29  2  1  0
 28  4  1  0
 19 11  1  0
 23 21  1  0
 16 14  1  0
 25 18  1  0
M  END
>  <name>  (546) 
P125231

>  <alias>  (546) 
None

>  <smina_score_min>  (546) 
-8.856

>  <exports>  (546) 
['/opt/xchem-fragalysis-2/maxwin/BulkDock/OUTPUTS/openbind_xx01zvns2b_c2_elabs_1LOUTNY.sdf', '/opt/xchem-fragalysis-2/maxwin/BulkDock/OUTPUTS/openbind_xx01zvns2b_c2_elabs_1LSYIIV.sdf']

>  <tags>  (546) 
syndirella_placed,openbind_xx01zvns2b_c2_elabs,openbind_xx01zvns2b_c2_elabs_scored_6.2plus,syndirella_product,openbind_xx01zvns2b_c2_elabs_scored,openbind_xx01zvns2b_c2_elabs_scored_top80percent,BulkDock Fragalysis export

>  <subsites>  (546) 
1 - Z4590/B/203/1

>  <smiles>  (546) 
CN1Cc2ccc(NC(=O)c3cc(C4CC4)nc4c3c(C3CC3)nn4C)cc2C1

>  <HIPPO Pose ID>  (546) 
125231

>  <energy_score>  (546) 
-28.599871

>  <inchikey>  (546) 
LEPHHXSQAHSBRK-UHFFFAOYSA-N

>  <gnina_score_min>  (546) 
6.302

>  <gnina_score>  (546) 
6.304

>  <ref_mols>  (546) 
Z3559a

>  <HIPPO Compound ID>  (546) 
178215

>  <distance_score>  (546) 
0.462808

>  <rmsd(smina/fragmenstein)>  (546) 
0.932

>  <ref_pdb>  (546) 
Z3559a

>  <inspiration_score>  (546) 
None

$$$$
P125233
     RDKit          3D

 29 33  0  0  0  0  0  0  0  0999 V2000
  -10.8426    2.8866   -5.4441 C   0  0  0  0  0  0  0  0  0  0  0  0
   -9.6267    2.2446   -6.0827 C   0  0  0  0  0  0  0  0  0  0  0  0
   -9.2433    2.8938   -7.3071 N   0  0  0  0  0  0  0  0  0  0  0  0
   -9.1220    2.1678   -8.5627 C   0  0  0  0  0  0  0  0  0  0  0  0
   -8.5667    3.2143   -9.4704 C   0  0  0  0  0  0  0  0  0  0  0  0
   -8.3362    3.1816  -10.8343 C   0  0  0  0  0  0  0  0  0  0  0  0
   -7.8143    4.3331  -11.4378 C   0  0  0  0  0  0  0  0  0  0  0  0
   -7.5701    4.3278  -12.8067 N   0  0  0  0  0  0  0  0  0  0  0  0
   -7.1152    5.4638  -13.7489 C   0  0  0  0  0  0  0  0  0  0  0  0
   -6.8000    6.5623  -13.5122 O   0  0  0  0  0  0  0  0  0  0  0  0
   -7.1107    5.0312  -15.1564 C   0  0  0  0  0  0  0  0  0  0  0  0
   -8.2582    4.4763  -15.7349 C   0  0  0  0  0  0  0  0  0  0  0  0
   -8.2960    4.2331  -17.1089 C   0  0  0  0  0  0  0  0  0  0  0  0
   -9.5767    3.7486  -17.7464 C   0  0  0  0  0  0  0  0  0  0  0  0
   -9.5476    2.5525  -18.6632 C   0  0  0  0  0  0  0  0  0  0  0  0
   -9.8114    3.9174  -19.2255 C   0  0  0  0  0  0  0  0  0  0  0  0
   -7.2434    4.4903  -17.9180 N   0  0  0  0  0  0  0  0  0  0  0  0
   -6.1696    5.0256  -17.3208 C   0  0  0  0  0  0  0  0  0  0  0  0
   -6.0139    5.3165  -15.9791 C   0  0  0  0  0  0  0  0  0  0  0  0
   -4.7035    5.8628  -15.8840 C   0  0  0  0  0  0  0  0  0  0  0  0
   -3.9842    6.3352  -14.6744 C   0  0  0  0  0  0  0  0  0  0  0  0
   -4.1008    5.9368  -17.0831 N   0  0  0  0  0  0  0  0  0  0  0  0
   -5.0224    5.4343  -17.9339 N   0  0  0  0  0  0  0  0  0  0  0  0
   -4.7692    5.4309  -19.3520 C   0  0  0  0  0  0  0  0  0  0  0  0
   -7.5311    5.4843  -10.6765 C   0  0  0  0  0  0  0  0  0  0  0  0
   -7.7612    5.5091   -9.3039 C   0  0  0  0  0  0  0  0  0  0  0  0
   -8.2746    4.3644   -8.7374 C   0  0  0  0  0  0  0  0  0  0  0  0
   -8.6479    4.1369   -7.3435 C   0  0  0  0  0  0  0  0  0  0  0  0
   -8.4623    4.9278   -6.4369 O   0  0  0  0  0  0  0  0  0  0  0  0
  1  2  1  0
  2  3  1  0
  3  4  1  0
  4  5  1  0
  5  6  2  0
  6  7  1  0
  7  8  1  0
  8  9  1  0
  9 10  2  0
  9 11  1  0
 11 12  2  0
 12 13  1  0
 13 14  1  0
 14 15  1  0
 15 16  1  0
 13 17  2  0
 17 18  1  0
 18 19  2  0
 19 20  1  0
 20 21  1  0
 20 22  2  0
 22 23  1  0
 23 24  1  0
  7 25  2  0
 25 26  1  0
 26 27  2  0
 27 28  1  0
 28 29  2  0
 28  3  1  0
 27  5  1  0
 19 11  1  0
 16 14  1  0
 23 18  1  0
M  END
>  <name>  (547) 
P125233

>  <alias>  (547) 
None

>  <smina_score_min>  (547) 
-9.156

>  <exports>  (547) 
['/opt/xchem-fragalysis-2/maxwin/BulkDock/OUTPUTS/openbind_xx01zvns2b_c2_elabs_1LOUTNY.sdf', '/opt/xchem-fragalysis-2/maxwin/BulkDock/OUTPUTS/openbind_xx01zvns2b_c2_elabs_1LSYIIV.sdf']

>  <tags>  (547) 
syndirella_placed,openbind_xx01zvns2b_c2_elabs,openbind_xx01zvns2b_c2_elabs_scored_6.2plus,syndirella_product,openbind_xx01zvns2b_c2_elabs_scored,openbind_xx01zvns2b_c2_elabs_scored_top80percent,BulkDock Fragalysis export

>  <subsites>  (547) 
1 - Z4590/B/203/1

>  <smiles>  (547) 
CCN1Cc2cc(NC(=O)c3cc(C4CC4)nc4c3c(C)nn4C)ccc2C1=O

>  <HIPPO Pose ID>  (547) 
125233

>  <energy_score>  (547) 
-39.752162

>  <inchikey>  (547) 
PUGWASOMHJLTTF-UHFFFAOYSA-N

>  <gnina_score_min>  (547) 
6.254

>  <gnina_score>  (547) 
6.256

>  <ref_mols>  (547) 
Z3559a

>  <HIPPO Compound ID>  (547) 
178065

>  <distance_score>  (547) 
0.475814

>  <rmsd(smina/fragmenstein)>  (547) 
0.529

>  <ref_pdb>  (547) 
Z3559a

>  <inspiration_score>  (547) 
None

$$$$
P125235
     RDKit          3D

 29 33  0  0  0  0  0  0  0  0999 V2000
  -10.2356    3.1455   -4.9859 C   0  0  0  0  0  0  0  0  0  0  0  0
  -10.1226    2.4361   -6.3283 C   0  0  0  0  0  0  0  0  0  0  0  0
   -8.9370    2.7817   -7.0963 N   0  0  0  0  0  0  0  0  0  0  0  0
   -8.6193    4.2091   -7.1956 C   0  0  0  0  0  0  0  0  0  0  0  0
   -8.1284    4.4162   -8.5882 C   0  0  0  0  0  0  0  0  0  0  0  0
   -7.5819    5.5541   -9.1513 C   0  0  0  0  0  0  0  0  0  0  0  0
   -7.2315    5.5217  -10.5024 C   0  0  0  0  0  0  0  0  0  0  0  0
   -7.4446    4.3682  -11.2702 C   0  0  0  0  0  0  0  0  0  0  0  0
   -7.1889    4.3632  -12.6414 N   0  0  0  0  0  0  0  0  0  0  0  0
   -6.6800    5.4936  -13.5763 C   0  0  0  0  0  0  0  0  0  0  0  0
   -6.3236    6.5792  -13.3280 O   0  0  0  0  0  0  0  0  0  0  0  0
   -6.7756    5.1036  -15.0056 C   0  0  0  0  0  0  0  0  0  0  0  0
   -7.9919    4.6715  -15.5659 C   0  0  0  0  0  0  0  0  0  0  0  0
   -9.3955    4.7064  -14.5740 Cl  0  0  0  0  0  0  0  0  0  0  0  0
   -8.0957    4.3584  -16.9361 C   0  0  0  0  0  0  0  0  0  0  0  0
   -9.3909    3.8455  -17.5718 C   0  0  0  0  0  0  0  0  0  0  0  0
   -9.6922    4.1042  -19.0295 C   0  0  0  0  0  0  0  0  0  0  0  0
   -9.3404    2.7196  -18.5816 C   0  0  0  0  0  0  0  0  0  0  0  0
   -7.0526    4.5548  -17.7768 N   0  0  0  0  0  0  0  0  0  0  0  0
   -5.9425    5.0607  -17.2205 C   0  0  0  0  0  0  0  0  0  0  0  0
   -5.7132    5.3380  -15.8837 C   0  0  0  0  0  0  0  0  0  0  0  0
   -4.3773    5.8234  -15.8477 C   0  0  0  0  0  0  0  0  0  0  0  0
   -3.5808    6.2552  -14.6711 C   0  0  0  0  0  0  0  0  0  0  0  0
   -3.8319    5.8854  -17.0738 N   0  0  0  0  0  0  0  0  0  0  0  0
   -4.8115    5.4333  -17.8847 N   0  0  0  0  0  0  0  0  0  0  0  0
   -4.6276    5.4397  -19.3138 C   0  0  0  0  0  0  0  0  0  0  0  0
   -8.0075    3.2236  -10.6854 C   0  0  0  0  0  0  0  0  0  0  0  0
   -8.3335    3.2627   -9.3376 C   0  0  0  0  0  0  0  0  0  0  0  0
   -8.9545    2.2113   -8.4681 C   0  0  0  0  0  0  0  0  0  0  0  0
  1  2  1  0
  2  3  1  0
  3  4  1  0
  4  5  1  0
  5  6  2  0
  6  7  1  0
  7  8  2  0
  8  9  1  0
  9 10  1  0
 10 11  2  0
 10 12  1  0
 12 13  2  0
 13 14  1  0
 13 15  1  0
 15 16  1  0
 16 17  1  0
 17 18  1  0
 15 19  2  0
 19 20  1  0
 20 21  2  0
 21 22  1  0
 22 23  1  0
 22 24  2  0
 24 25  1  0
 25 26  1  0
  8 27  1  0
 27 28  2  0
 28 29  1  0
 29  3  1  0
 28  5  1  0
 21 12  1  0
 18 16  1  0
 25 20  1  0
M  END
>  <name>  (548) 
P125235

>  <alias>  (548) 
None

>  <smina_score_min>  (548) 
-8.255

>  <exports>  (548) 
['/opt/xchem-fragalysis-2/maxwin/BulkDock/OUTPUTS/openbind_xx01zvns2b_c2_elabs_1LOUTNY.sdf', '/opt/xchem-fragalysis-2/maxwin/BulkDock/OUTPUTS/openbind_xx01zvns2b_c2_elabs_1LSYIIV.sdf']

>  <tags>  (548) 
syndirella_placed,openbind_xx01zvns2b_c2_elabs,openbind_xx01zvns2b_c2_elabs_scored_6.2plus,syndirella_product,openbind_xx01zvns2b_c2_elabs_scored,openbind_xx01zvns2b_c2_elabs_scored_top80percent,BulkDock Fragalysis export

>  <subsites>  (548) 
1 - Z4590/B/203/1

>  <smiles>  (548) 
CCN1Cc2ccc(NC(=O)c3c(Cl)c(C4CC4)nc4c3c(C)nn4C)cc2C1

>  <HIPPO Pose ID>  (548) 
125235

>  <energy_score>  (548) 
-47.17671

>  <inchikey>  (548) 
PJSPVZSNZUWGKB-UHFFFAOYSA-N

>  <gnina_score_min>  (548) 
6.417

>  <gnina_score>  (548) 
6.41

>  <ref_mols>  (548) 
Z3559a

>  <HIPPO Compound ID>  (548) 
178169

>  <distance_score>  (548) 
0.629747

>  <rmsd(smina/fragmenstein)>  (548) 
0.335

>  <ref_pdb>  (548) 
Z3559a

>  <inspiration_score>  (548) 
None

$$$$
P125236
     RDKit          3D

 29 33  0  0  0  0  0  0  0  0999 V2000
   -3.5016    6.1703  -14.7375 C   0  0  0  0  0  0  0  0  0  0  0  0
   -4.3398    5.7808  -15.8999 C   0  0  0  0  0  0  0  0  0  0  0  0
   -3.8136    5.8451  -17.1343 N   0  0  0  0  0  0  0  0  0  0  0  0
   -4.8150    5.4251  -17.9336 N   0  0  0  0  0  0  0  0  0  0  0  0
   -4.6540    5.4380  -19.3656 C   0  0  0  0  0  0  0  0  0  0  0  0
   -5.9412    5.0671  -17.2546 C   0  0  0  0  0  0  0  0  0  0  0  0
   -7.0609    4.5747  -17.8009 N   0  0  0  0  0  0  0  0  0  0  0  0
   -8.0959    4.3817  -16.9524 C   0  0  0  0  0  0  0  0  0  0  0  0
   -9.3938    3.8597  -17.5756 C   0  0  0  0  0  0  0  0  0  0  0  0
   -9.7106    4.1125  -19.0307 C   0  0  0  0  0  0  0  0  0  0  0  0
   -9.3424    2.7318  -18.5838 C   0  0  0  0  0  0  0  0  0  0  0  0
   -7.9785    4.7000  -15.5843 C   0  0  0  0  0  0  0  0  0  0  0  0
   -9.3879    4.7674  -14.5993 Cl  0  0  0  0  0  0  0  0  0  0  0  0
   -6.7489    5.1103  -15.0276 C   0  0  0  0  0  0  0  0  0  0  0  0
   -6.5999    5.4355  -13.5787 C   0  0  0  0  0  0  0  0  0  0  0  0
   -6.0760    6.4360  -13.2805 O   0  0  0  0  0  0  0  0  0  0  0  0
   -7.2743    4.3540  -12.6978 N   0  0  0  0  0  0  0  0  0  0  0  0
   -7.5181    4.3271  -11.3289 C   0  0  0  0  0  0  0  0  0  0  0  0
   -7.0978    5.3595  -10.4734 C   0  0  0  0  0  0  0  0  0  0  0  0
   -7.3963    5.3296   -9.1029 C   0  0  0  0  0  0  0  0  0  0  0  0
   -8.1358    4.2685   -8.6183 C   0  0  0  0  0  0  0  0  0  0  0  0
   -8.5767    3.2749   -9.4876 C   0  0  0  0  0  0  0  0  0  0  0  0
   -8.2756    3.2638  -10.8338 C   0  0  0  0  0  0  0  0  0  0  0  0
   -9.3940    2.3327   -8.7256 C   0  0  0  0  0  0  0  0  0  0  0  0
   -9.9242    1.3450   -9.1892 O   0  0  0  0  0  0  0  0  0  0  0  0
   -9.4413    2.8080   -7.4248 N   0  0  0  0  0  0  0  0  0  0  0  0
   -9.8045    1.9370   -6.3428 C   0  0  0  0  0  0  0  0  0  0  0  0
   -8.5767    3.9522   -7.2295 C   0  0  0  0  0  0  0  0  0  0  0  0
   -5.6913    5.3328  -15.9187 C   0  0  0  0  0  0  0  0  0  0  0  0
  1  2  1  0
  2  3  2  0
  3  4  1  0
  4  5  1  0
  4  6  1  0
  6  7  2  0
  7  8  1  0
  8  9  1  0
  9 10  1  0
 10 11  1  0
  8 12  2  0
 12 13  1  0
 12 14  1  0
 14 15  1  0
 15 16  2  0
 15 17  1  0
 17 18  1  0
 18 19  2  0
 19 20  1  0
 20 21  2  0
 21 22  1  0
 22 23  2  0
 22 24  1  0
 24 25  2  0
 24 26  1  0
 26 27  1  0
 26 28  1  0
 14 29  2  0
 29  2  1  0
 29  6  1  0
 11  9  1  0
 23 18  1  0
 28 21  1  0
M  END
>  <name>  (549) 
P125236

>  <alias>  (549) 
None

>  <smina_score_min>  (549) 
-8.265

>  <exports>  (549) 
['/opt/xchem-fragalysis-2/maxwin/BulkDock/OUTPUTS/openbind_xx01zvns2b_c2_elabs_1LOUTNY.sdf', '/opt/xchem-fragalysis-2/maxwin/BulkDock/OUTPUTS/openbind_xx01zvns2b_c2_elabs_1LSYIIV.sdf']

>  <tags>  (549) 
syndirella_placed,openbind_xx01zvns2b_c2_elabs,openbind_xx01zvns2b_c2_elabs_scored_6.2plus,syndirella_product,openbind_xx01zvns2b_c2_elabs_scored,openbind_xx01zvns2b_c2_elabs_scored_top80percent,BulkDock Fragalysis export

>  <subsites>  (549) 
1 - Z4590/B/203/1

>  <smiles>  (549) 
Cc1nn(C)c2nc(C3CC3)c(Cl)c(C(=O)Nc3ccc4c(c3)C(=O)N(C)C4)c12

>  <HIPPO Pose ID>  (549) 
125236

>  <energy_score>  (549) 
-18.70899

>  <inchikey>  (549) 
DLLMNZFKKSTXFH-UHFFFAOYSA-N

>  <gnina_score_min>  (549) 
6.218

>  <gnina_score>  (549) 
6.373

>  <ref_mols>  (549) 
Z3559a

>  <HIPPO Compound ID>  (549) 
178168

>  <distance_score>  (549) 
0.633743

>  <rmsd(smina/fragmenstein)>  (549) 
0.573

>  <ref_pdb>  (549) 
Z3559a

>  <inspiration_score>  (549) 
None

$$$$
P125239
     RDKit          3D

 29 33  0  0  0  0  0  0  0  0999 V2000
   -5.5060    5.1071  -19.8985 C   0  0  0  0  0  0  0  0  0  0  0  0
   -4.5216    5.6014  -18.8439 C   0  0  0  0  0  0  0  0  0  0  0  0
   -4.1263    7.0454  -19.1859 C   0  0  0  0  0  0  0  0  0  0  0  0
   -4.9764    5.5041  -17.4588 N   0  0  0  0  0  0  0  0  0  0  0  0
   -4.1269    5.9251  -16.4829 N   0  0  0  0  0  0  0  0  0  0  0  0
   -4.8494    5.8153  -15.3652 C   0  0  0  0  0  0  0  0  0  0  0  0
   -6.1305    5.2777  -15.5927 C   0  0  0  0  0  0  0  0  0  0  0  0
   -7.2727    4.9600  -14.8458 C   0  0  0  0  0  0  0  0  0  0  0  0
   -7.3232    5.3557  -13.4213 C   0  0  0  0  0  0  0  0  0  0  0  0
   -6.9242    6.4231  -13.1627 O   0  0  0  0  0  0  0  0  0  0  0  0
   -7.9276    4.2608  -12.5068 N   0  0  0  0  0  0  0  0  0  0  0  0
   -8.0745    4.2174  -11.1112 C   0  0  0  0  0  0  0  0  0  0  0  0
   -8.6710    3.0823  -10.5467 C   0  0  0  0  0  0  0  0  0  0  0  0
   -8.8115    3.0428   -9.1661 C   0  0  0  0  0  0  0  0  0  0  0  0
   -8.3714    4.0662   -8.3284 C   0  0  0  0  0  0  0  0  0  0  0  0
   -7.7853    5.1903   -8.8670 C   0  0  0  0  0  0  0  0  0  0  0  0
   -7.6429    5.2580  -10.2565 C   0  0  0  0  0  0  0  0  0  0  0  0
   -7.0592    6.3638  -10.7320 F   0  0  0  0  0  0  0  0  0  0  0  0
   -8.6442    3.7219   -6.9047 C   0  0  0  0  0  0  0  0  0  0  0  0
   -9.3199    2.4603   -7.0101 N   0  0  0  0  0  0  0  0  0  0  0  0
   -9.4309    2.0217   -8.3123 C   0  0  0  0  0  0  0  0  0  0  0  0
   -9.9774    1.0076   -8.6868 O   0  0  0  0  0  0  0  0  0  0  0  0
   -8.3734    4.4320  -15.5248 C   0  0  0  0  0  0  0  0  0  0  0  0
   -8.3198    4.2570  -16.9123 C   0  0  0  0  0  0  0  0  0  0  0  0
   -9.5543    3.7894  -17.6564 C   0  0  0  0  0  0  0  0  0  0  0  0
   -9.6920    4.0020  -19.1437 C   0  0  0  0  0  0  0  0  0  0  0  0
   -9.4614    2.6222  -18.6077 C   0  0  0  0  0  0  0  0  0  0  0  0
   -7.2214    4.5670  -17.6416 N   0  0  0  0  0  0  0  0  0  0  0  0
   -6.1797    5.0654  -16.9583 C   0  0  0  0  0  0  0  0  0  0  0  0
  1  2  1  0
  2  3  1  0
  2  4  1  0
  4  5  1  0
  5  6  2  0
  6  7  1  0
  7  8  2  0
  8  9  1  0
  9 10  2  0
  9 11  1  0
 11 12  1  0
 12 13  2  0
 13 14  1  0
 14 15  2  0
 15 16  1  0
 16 17  2  0
 17 18  1  0
 15 19  1  0
 19 20  1  0
 20 21  1  0
 21 22  2  0
  8 23  1  0
 23 24  2  0
 24 25  1  0
 25 26  1  0
 26 27  1  0
 24 28  1  0
 28 29  2  0
 29  4  1  0
 29  7  1  0
 17 12  1  0
 27 25  1  0
 21 14  1  0
M  END
>  <name>  (550) 
P125239

>  <alias>  (550) 
None

>  <smina_score_min>  (550) 
-9.414

>  <exports>  (550) 
['/opt/xchem-fragalysis-2/maxwin/BulkDock/OUTPUTS/openbind_xx01zvns2b_c2_elabs_1LOUTNY.sdf', '/opt/xchem-fragalysis-2/maxwin/BulkDock/OUTPUTS/openbind_xx01zvns2b_c2_elabs_1LSYIIV.sdf']

>  <tags>  (550) 
syndirella_placed,openbind_xx01zvns2b_c2_elabs,openbind_xx01zvns2b_c2_elabs_scored_6.2plus,syndirella_product,openbind_xx01zvns2b_c2_elabs_scored,openbind_xx01zvns2b_c2_elabs_scored_top80percent,BulkDock Fragalysis export

>  <subsites>  (550) 
1 - Z4590/B/203/1

>  <smiles>  (550) 
CC(C)n1ncc2c(C(=O)Nc3cc4c(cc3F)CNC4=O)cc(C3CC3)nc21

>  <HIPPO Pose ID>  (550) 
125239

>  <energy_score>  (550) 
-32.641574

>  <inchikey>  (550) 
BFPHXIZUCHXUNM-UHFFFAOYSA-N

>  <gnina_score_min>  (550) 
6.494

>  <gnina_score>  (550) 
6.284

>  <ref_mols>  (550) 
Z3559a

>  <HIPPO Compound ID>  (550) 
178174

>  <distance_score>  (550) 
0.378425

>  <rmsd(smina/fragmenstein)>  (550) 
1.057

>  <ref_pdb>  (550) 
Z3559a

>  <inspiration_score>  (550) 
None

$$$$
P125241
     RDKit          3D

 29 33  0  0  0  0  0  0  0  0999 V2000
  -10.2760    3.1490   -4.9469 C   0  0  0  0  0  0  0  0  0  0  0  0
  -10.1818    2.4278   -6.2844 C   0  0  0  0  0  0  0  0  0  0  0  0
   -8.9847    2.7298   -7.0548 N   0  0  0  0  0  0  0  0  0  0  0  0
   -8.6542    4.1510   -7.1976 C   0  0  0  0  0  0  0  0  0  0  0  0
   -8.2917    4.3474   -8.6292 C   0  0  0  0  0  0  0  0  0  0  0  0
   -7.8286    5.4918   -9.2470 C   0  0  0  0  0  0  0  0  0  0  0  0
   -7.5798    5.4419  -10.6179 C   0  0  0  0  0  0  0  0  0  0  0  0
   -7.8107    4.2671  -11.3537 C   0  0  0  0  0  0  0  0  0  0  0  0
   -7.5469    4.2391  -12.7235 N   0  0  0  0  0  0  0  0  0  0  0  0
   -7.0172    5.3444  -13.6676 C   0  0  0  0  0  0  0  0  0  0  0  0
   -6.6462    6.4273  -13.4327 O   0  0  0  0  0  0  0  0  0  0  0  0
   -7.0305    4.9356  -15.0876 C   0  0  0  0  0  0  0  0  0  0  0  0
   -8.1753    4.4142  -15.6948 C   0  0  0  0  0  0  0  0  0  0  0  0
   -8.2161    4.2605  -17.0848 C   0  0  0  0  0  0  0  0  0  0  0  0
   -9.4974    3.7818  -17.7348 C   0  0  0  0  0  0  0  0  0  0  0  0
   -9.7270    3.9522  -19.2144 C   0  0  0  0  0  0  0  0  0  0  0  0
   -9.4672    2.5866  -18.6539 C   0  0  0  0  0  0  0  0  0  0  0  0
   -7.1772    4.6003  -17.8894 N   0  0  0  0  0  0  0  0  0  0  0  0
   -6.0884    5.0781  -17.2665 C   0  0  0  0  0  0  0  0  0  0  0  0
   -5.9389    5.2577  -15.9028 C   0  0  0  0  0  0  0  0  0  0  0  0
   -4.6447    5.7933  -15.7565 C   0  0  0  0  0  0  0  0  0  0  0  0
   -4.0127    5.9557  -16.9234 N   0  0  0  0  0  0  0  0  0  0  0  0
   -4.9396    5.5712  -17.8444 N   0  0  0  0  0  0  0  0  0  0  0  0
   -4.7494    6.0053  -19.2252 C   0  0  0  0  0  0  0  0  0  0  0  0
   -5.5856    7.2494  -19.5053 C   0  0  0  0  0  0  0  0  0  0  0  0
   -4.9842    4.9528  -20.3029 C   0  0  0  0  0  0  0  0  0  0  0  0
   -8.2938    3.1198  -10.7142 C   0  0  0  0  0  0  0  0  0  0  0  0
   -8.5164    3.1761   -9.3443 C   0  0  0  0  0  0  0  0  0  0  0  0
   -9.0073    2.1133   -8.4085 C   0  0  0  0  0  0  0  0  0  0  0  0
  1  2  1  0
  2  3  1  0
  3  4  1  0
  4  5  1  0
  5  6  2  0
  6  7  1  0
  7  8  2  0
  8  9  1  0
  9 10  1  0
 10 11  2  0
 10 12  1  0
 12 13  2  0
 13 14  1  0
 14 15  1  0
 15 16  1  0
 16 17  1  0
 14 18  2  0
 18 19  1  0
 19 20  2  0
 20 21  1  0
 21 22  2  0
 22 23  1  0
 23 24  1  0
 24 25  1  0
 24 26  1  0
  8 27  1  0
 27 28  2  0
 28 29  1  0
 29  3  1  0
 28  5  1  0
 20 12  1  0
 17 15  1  0
 23 19  1  0
M  END
>  <name>  (551) 
P125241

>  <alias>  (551) 
None

>  <smina_score_min>  (551) 
-8.996

>  <exports>  (551) 
['/opt/xchem-fragalysis-2/maxwin/BulkDock/OUTPUTS/openbind_xx01zvns2b_c2_elabs_1LOUTNY.sdf', '/opt/xchem-fragalysis-2/maxwin/BulkDock/OUTPUTS/openbind_xx01zvns2b_c2_elabs_1LSYIIV.sdf']

>  <tags>  (551) 
syndirella_placed,openbind_xx01zvns2b_c2_elabs,openbind_xx01zvns2b_c2_elabs_scored_6.2plus,syndirella_product,openbind_xx01zvns2b_c2_elabs_scored,openbind_xx01zvns2b_c2_elabs_scored_top80percent,BulkDock Fragalysis export

>  <subsites>  (551) 
1 - Z4590/B/203/1

>  <smiles>  (551) 
CCN1Cc2ccc(NC(=O)c3cc(C4CC4)nc4c3cnn4C(C)C)cc2C1

>  <HIPPO Pose ID>  (551) 
125241

>  <energy_score>  (551) 
-22.171355

>  <inchikey>  (551) 
RMCWQKPQTYMCIW-UHFFFAOYSA-N

>  <gnina_score_min>  (551) 
6.268

>  <gnina_score>  (551) 
6.178

>  <ref_mols>  (551) 
Z3559a

>  <HIPPO Compound ID>  (551) 
178179

>  <distance_score>  (551) 
0.444523

>  <rmsd(smina/fragmenstein)>  (551) 
0.529

>  <ref_pdb>  (551) 
Z3559a

>  <inspiration_score>  (551) 
None

$$$$
P125244
     RDKit          3D

 29 33  0  0  0  0  0  0  0  0999 V2000
   -3.6654    6.2162  -14.2920 C   0  0  0  0  0  0  0  0  0  0  0  0
   -4.2786    5.8573  -15.5970 C   0  0  0  0  0  0  0  0  0  0  0  0
   -3.5438    5.9731  -16.7176 N   0  0  0  0  0  0  0  0  0  0  0  0
   -4.3814    5.5694  -17.6909 N   0  0  0  0  0  0  0  0  0  0  0  0
   -3.9701    5.6120  -19.0706 C   0  0  0  0  0  0  0  0  0  0  0  0
   -5.5982    5.1769  -17.2304 C   0  0  0  0  0  0  0  0  0  0  0  0
   -6.5903    4.7140  -17.9881 N   0  0  0  0  0  0  0  0  0  0  0  0
   -7.7526    4.4398  -17.3621 C   0  0  0  0  0  0  0  0  0  0  0  0
   -8.7921    4.0060  -18.3904 C   0  0  0  0  0  0  0  0  0  0  0  0
  -10.2665    3.8115  -18.2642 C   0  0  0  0  0  0  0  0  0  0  0  0
   -9.3585    2.6139  -18.3274 C   0  0  0  0  0  0  0  0  0  0  0  0
   -7.8770    4.6320  -15.9660 C   0  0  0  0  0  0  0  0  0  0  0  0
   -9.3750    4.4403  -15.1807 Cl  0  0  0  0  0  0  0  0  0  0  0  0
   -6.7894    5.0930  -15.1851 C   0  0  0  0  0  0  0  0  0  0  0  0
   -6.9019    5.4917  -13.7464 C   0  0  0  0  0  0  0  0  0  0  0  0
   -6.4925    6.5540  -13.4769 O   0  0  0  0  0  0  0  0  0  0  0  0
   -7.5647    4.4100  -12.8479 N   0  0  0  0  0  0  0  0  0  0  0  0
   -7.7673    4.3771  -11.4536 C   0  0  0  0  0  0  0  0  0  0  0  0
   -8.4238    3.2595  -10.9110 C   0  0  0  0  0  0  0  0  0  0  0  0
   -8.6384    3.2266   -9.5373 C   0  0  0  0  0  0  0  0  0  0  0  0
   -8.2108    4.2383   -8.6803 C   0  0  0  0  0  0  0  0  0  0  0  0
   -7.5799    5.3499   -9.1966 C   0  0  0  0  0  0  0  0  0  0  0  0
   -7.3692    5.4137  -10.5807 C   0  0  0  0  0  0  0  0  0  0  0  0
   -6.7394    6.5052  -11.0312 F   0  0  0  0  0  0  0  0  0  0  0  0
   -8.5488    3.8995   -7.2683 C   0  0  0  0  0  0  0  0  0  0  0  0
   -9.2559    2.6580   -7.4048 N   0  0  0  0  0  0  0  0  0  0  0  0
   -9.3362    2.2306   -8.7128 C   0  0  0  0  0  0  0  0  0  0  0  0
   -9.9150    1.2455   -9.1143 O   0  0  0  0  0  0  0  0  0  0  0  0
   -5.5943    5.3780  -15.8656 C   0  0  0  0  0  0  0  0  0  0  0  0
  1  2  1  0
  2  3  2  0
  3  4  1  0
  4  5  1  0
  4  6  1  0
  6  7  2  0
  7  8  1  0
  8  9  1  0
  9 10  1  0
 10 11  1  0
  8 12  2  0
 12 13  1  0
 12 14  1  0
 14 15  1  0
 15 16  2  0
 15 17  1  0
 17 18  1  0
 18 19  2  0
 19 20  1  0
 20 21  2  0
 21 22  1  0
 22 23  2  0
 23 24  1  0
 21 25  1  0
 25 26  1  0
 26 27  1  0
 27 28  2  0
 14 29  2  0
 29  2  1  0
 29  6  1  0
 11  9  1  0
 23 18  1  0
 27 20  1  0
M  END
>  <name>  (552) 
P125244

>  <alias>  (552) 
None

>  <smina_score_min>  (552) 
-7.992

>  <exports>  (552) 
['/opt/xchem-fragalysis-2/maxwin/BulkDock/OUTPUTS/openbind_xx01zvns2b_c2_elabs_1LOUTNY.sdf', '/opt/xchem-fragalysis-2/maxwin/BulkDock/OUTPUTS/openbind_xx01zvns2b_c2_elabs_1LSYIIV.sdf']

>  <tags>  (552) 
syndirella_placed,openbind_xx01zvns2b_c2_elabs,openbind_xx01zvns2b_c2_elabs_scored_6.2plus,syndirella_product,openbind_xx01zvns2b_c2_elabs_scored,openbind_xx01zvns2b_c2_elabs_scored_top80percent,BulkDock Fragalysis export

>  <subsites>  (552) 
1 - Z4590/B/203/1

>  <smiles>  (552) 
Cc1nn(C)c2nc(C3CC3)c(Cl)c(C(=O)Nc3cc4c(cc3F)CNC4=O)c12

>  <HIPPO Pose ID>  (552) 
125244

>  <energy_score>  (552) 
-29.772281

>  <inchikey>  (552) 
FHQVBGVJAWAQBJ-UHFFFAOYSA-N

>  <gnina_score_min>  (552) 
6.436

>  <gnina_score>  (552) 
6.562

>  <ref_mols>  (552) 
Z3559a

>  <HIPPO Compound ID>  (552) 
178137

>  <distance_score>  (552) 
0.733912

>  <rmsd(smina/fragmenstein)>  (552) 
0.709

>  <ref_pdb>  (552) 
Z3559a

>  <inspiration_score>  (552) 
None

$$$$
P125245
     RDKit          3D

 29 33  0  0  0  0  0  0  0  0999 V2000
   -3.5728    6.2461  -14.6478 C   0  0  0  0  0  0  0  0  0  0  0  0
   -4.3711    5.8222  -15.8261 C   0  0  0  0  0  0  0  0  0  0  0  0
   -3.8245    5.8864  -17.0516 N   0  0  0  0  0  0  0  0  0  0  0  0
   -4.8042    5.4401  -17.8650 N   0  0  0  0  0  0  0  0  0  0  0  0
   -4.6168    5.4462  -19.2938 C   0  0  0  0  0  0  0  0  0  0  0  0
   -5.9376    5.0704  -17.2033 C   0  0  0  0  0  0  0  0  0  0  0  0
   -7.0472    4.5675  -17.7632 N   0  0  0  0  0  0  0  0  0  0  0  0
   -8.0920    4.3699  -16.9257 C   0  0  0  0  0  0  0  0  0  0  0  0
   -9.3854    3.8544  -17.5642 C   0  0  0  0  0  0  0  0  0  0  0  0
   -9.3309    2.7291  -18.5748 C   0  0  0  0  0  0  0  0  0  0  0  0
   -9.6850    4.1132  -19.0222 C   0  0  0  0  0  0  0  0  0  0  0  0
   -7.9899    4.6807  -15.5548 C   0  0  0  0  0  0  0  0  0  0  0  0
   -9.3968    4.7167  -14.5673 Cl  0  0  0  0  0  0  0  0  0  0  0  0
   -6.7730    5.1064  -14.9886 C   0  0  0  0  0  0  0  0  0  0  0  0
   -6.6710    5.4660  -13.5492 C   0  0  0  0  0  0  0  0  0  0  0  0
   -6.2929    6.5369  -13.2723 O   0  0  0  0  0  0  0  0  0  0  0  0
   -7.2063    4.3234  -12.6453 N   0  0  0  0  0  0  0  0  0  0  0  0
   -7.4662    4.2988  -11.2753 C   0  0  0  0  0  0  0  0  0  0  0  0
   -7.2109    5.4145  -10.4603 C   0  0  0  0  0  0  0  0  0  0  0  0
   -7.5639    5.4055   -9.1073 C   0  0  0  0  0  0  0  0  0  0  0  0
   -8.1602    4.2640   -8.6089 C   0  0  0  0  0  0  0  0  0  0  0  0
   -8.4208    3.1482   -9.3997 C   0  0  0  0  0  0  0  0  0  0  0  0
   -8.0793    3.1519  -10.7424 C   0  0  0  0  0  0  0  0  0  0  0  0
   -9.0926    2.0942   -8.5827 C   0  0  0  0  0  0  0  0  0  0  0  0
   -9.2048    2.7343   -7.2824 N   0  0  0  0  0  0  0  0  0  0  0  0
   -9.9376    2.1305   -6.2006 C   0  0  0  0  0  0  0  0  0  0  0  0
   -8.6676    4.0038   -7.2560 C   0  0  0  0  0  0  0  0  0  0  0  0
   -8.6356    4.8062   -6.3409 O   0  0  0  0  0  0  0  0  0  0  0  0
   -5.7094    5.3430  -15.8649 C   0  0  0  0  0  0  0  0  0  0  0  0
  1  2  1  0
  2  3  2  0
  3  4  1  0
  4  5  1  0
  4  6  1  0
  6  7  2  0
  7  8  1  0
  8  9  1  0
  9 10  1  0
 10 11  1  0
  8 12  2  0
 12 13  1  0
 12 14  1  0
 14 15  1  0
 15 16  2  0
 15 17  1  0
 17 18  1  0
 18 19  2  0
 19 20  1  0
 20 21  2  0
 21 22  1  0
 22 23  2  0
 22 24  1  0
 24 25  1  0
 25 26  1  0
 25 27  1  0
 27 28  2  0
 14 29  2  0
 29  2  1  0
 29  6  1  0
 11  9  1  0
 23 18  1  0
 27 21  1  0
M  END
>  <name>  (553) 
P125245

>  <alias>  (553) 
None

>  <smina_score_min>  (553) 
-8.61

>  <exports>  (553) 
['/opt/xchem-fragalysis-2/maxwin/BulkDock/OUTPUTS/openbind_xx01zvns2b_c2_elabs_1LOUTNY.sdf', '/opt/xchem-fragalysis-2/maxwin/BulkDock/OUTPUTS/openbind_xx01zvns2b_c2_elabs_1LSYIIV.sdf']

>  <tags>  (553) 
syndirella_placed,openbind_xx01zvns2b_c2_elabs,openbind_xx01zvns2b_c2_elabs_scored_6.2plus,syndirella_product,openbind_xx01zvns2b_c2_elabs_scored,openbind_xx01zvns2b_c2_elabs_scored_top80percent,BulkDock Fragalysis export

>  <subsites>  (553) 
1 - Z4590/B/203/1

>  <smiles>  (553) 
Cc1nn(C)c2nc(C3CC3)c(Cl)c(C(=O)Nc3ccc4c(c3)CN(C)C4=O)c12

>  <HIPPO Pose ID>  (553) 
125245

>  <energy_score>  (553) 
-42.050375

>  <inchikey>  (553) 
OBVBQHFDBLLYTR-UHFFFAOYSA-N

>  <gnina_score_min>  (553) 
6.357

>  <gnina_score>  (553) 
6.333

>  <ref_mols>  (553) 
Z3559a

>  <HIPPO Compound ID>  (553) 
178131

>  <distance_score>  (553) 
0.602109

>  <rmsd(smina/fragmenstein)>  (553) 
0.341

>  <ref_pdb>  (553) 
Z3559a

>  <inspiration_score>  (553) 
None

$$$$
P125250
     RDKit          3D

 29 33  0  0  0  0  0  0  0  0999 V2000
   -2.8571    5.1862  -20.8212 C   0  0  0  0  0  0  0  0  0  0  0  0
   -3.1790    5.4134  -19.3502 C   0  0  0  0  0  0  0  0  0  0  0  0
   -4.6899    5.5567  -19.0736 C   0  0  2  0  0  0  0  0  0  0  0  0
   -5.2659    6.8341  -19.6879 C   0  0  0  0  0  0  0  0  0  0  0  0
   -4.9989    5.5166  -17.6425 N   0  0  0  0  0  0  0  0  0  0  0  0
   -4.1522    6.0545  -16.7292 N   0  0  0  0  0  0  0  0  0  0  0  0
   -4.8210    5.9279  -15.5764 C   0  0  0  0  0  0  0  0  0  0  0  0
   -6.0878    5.3271  -15.7358 C   0  0  0  0  0  0  0  0  0  0  0  0
   -7.1975    4.9926  -14.9489 C   0  0  0  0  0  0  0  0  0  0  0  0
   -7.2230    5.3810  -13.5177 C   0  0  0  0  0  0  0  0  0  0  0  0
   -6.7721    6.4212  -13.2355 O   0  0  0  0  0  0  0  0  0  0  0  0
   -7.8861    4.3004  -12.6293 N   0  0  0  0  0  0  0  0  0  0  0  0
   -8.0412    4.2363  -11.2435 C   0  0  0  0  0  0  0  0  0  0  0  0
   -7.7221    5.3443  -10.4342 C   0  0  0  0  0  0  0  0  0  0  0  0
   -7.8488    5.2804   -9.0431 C   0  0  0  0  0  0  0  0  0  0  0  0
   -8.2970    4.0939   -8.5008 C   0  0  0  0  0  0  0  0  0  0  0  0
   -8.6257    2.9901   -9.2836 C   0  0  0  0  0  0  0  0  0  0  0  0
   -8.5068    3.0476  -10.6649 C   0  0  0  0  0  0  0  0  0  0  0  0
   -9.0355    1.8588   -8.4007 C   0  0  0  0  0  0  0  0  0  0  0  0
   -9.0363    2.4612   -7.0834 N   0  0  0  0  0  0  0  0  0  0  0  0
   -8.4934    3.7286   -7.0920 C   0  0  0  0  0  0  0  0  0  0  0  0
   -8.1993    4.4165   -6.1324 O   0  0  0  0  0  0  0  0  0  0  0  0
   -8.3089    4.4382  -15.5952 C   0  0  0  0  0  0  0  0  0  0  0  0
   -8.2915    4.2378  -16.9814 C   0  0  0  0  0  0  0  0  0  0  0  0
   -9.5464    3.7625  -17.6827 C   0  0  0  0  0  0  0  0  0  0  0  0
   -9.4801    2.5903  -18.6292 C   0  0  0  0  0  0  0  0  0  0  0  0
   -9.7275    3.9673  -19.1663 C   0  0  0  0  0  0  0  0  0  0  0  0
   -7.2114    4.5292  -17.7458 N   0  0  0  0  0  0  0  0  0  0  0  0
   -6.1710    5.0650  -17.0901 C   0  0  0  0  0  0  0  0  0  0  0  0
  1  2  1  0
  2  3  1  0
  3  4  1  1
  3  5  1  0
  5  6  1  0
  6  7  2  0
  7  8  1  0
  8  9  2  0
  9 10  1  0
 10 11  2  0
 10 12  1  0
 12 13  1  0
 13 14  2  0
 14 15  1  0
 15 16  2  0
 16 17  1  0
 17 18  2  0
 17 19  1  0
 19 20  1  0
 20 21  1  0
 21 22  2  0
  9 23  1  0
 23 24  2  0
 24 25  1  0
 25 26  1  0
 26 27  1  0
 24 28  1  0
 28 29  2  0
 29  5  1  0
 29  8  1  0
 18 13  1  0
 27 25  1  0
 21 16  1  0
M  END
>  <name>  (554) 
P125250

>  <alias>  (554) 
None

>  <smina_score_min>  (554) 
-9.08

>  <exports>  (554) 
['/opt/xchem-fragalysis-2/maxwin/BulkDock/OUTPUTS/openbind_xx01zvns2b_c2_elabs_1LOUTNY.sdf', '/opt/xchem-fragalysis-2/maxwin/BulkDock/OUTPUTS/openbind_xx01zvns2b_c2_elabs_1LSYIIV.sdf']

>  <tags>  (554) 
syndirella_placed,openbind_xx01zvns2b_c2_elabs,openbind_xx01zvns2b_c2_elabs_scored_6.2plus,syndirella_product,openbind_xx01zvns2b_c2_elabs_scored,openbind_xx01zvns2b_c2_elabs_scored_top80percent,BulkDock Fragalysis export

>  <subsites>  (554) 
1 - Z4590/B/203/1

>  <smiles>  (554) 
CC[C@H](C)n1ncc2c(C(=O)Nc3ccc4c(c3)CNC4=O)cc(C3CC3)nc21

>  <HIPPO Pose ID>  (554) 
125250

>  <energy_score>  (554) 
-26.062048

>  <inchikey>  (554) 
HONCFVQBSAYHNL-LBPRGKRZSA-N

>  <gnina_score_min>  (554) 
6.259

>  <gnina_score>  (554) 
6.184

>  <ref_mols>  (554) 
Z3559a

>  <HIPPO Compound ID>  (554) 
178049

>  <distance_score>  (554) 
0.31775

>  <rmsd(smina/fragmenstein)>  (554) 
0.769

>  <ref_pdb>  (554) 
Z3559a

>  <inspiration_score>  (554) 
None

$$$$
P125252
     RDKit          3D

 29 33  0  0  0  0  0  0  0  0999 V2000
   -4.7564    4.9828  -21.3398 C   0  0  0  0  0  0  0  0  0  0  0  0
   -5.3717    5.0599  -19.9489 C   0  0  0  0  0  0  0  0  0  0  0  0
   -4.5148    5.8228  -18.9277 C   0  0  1  0  0  0  0  0  0  0  0  0
   -4.4472    7.3151  -19.2872 C   0  0  0  0  0  0  0  0  0  0  0  0
   -4.9301    5.6775  -17.5290 N   0  0  0  0  0  0  0  0  0  0  0  0
   -4.0888    6.1403  -16.5649 N   0  0  0  0  0  0  0  0  0  0  0  0
   -4.7962    6.0003  -15.4390 C   0  0  0  0  0  0  0  0  0  0  0  0
   -6.0564    5.4048  -15.6491 C   0  0  0  0  0  0  0  0  0  0  0  0
   -7.1772    5.0274  -14.8907 C   0  0  0  0  0  0  0  0  0  0  0  0
   -7.2064    5.3793  -13.4468 C   0  0  0  0  0  0  0  0  0  0  0  0
   -6.7149    6.3972  -13.1477 O   0  0  0  0  0  0  0  0  0  0  0  0
   -7.8246    4.2651  -12.5649 N   0  0  0  0  0  0  0  0  0  0  0  0
   -8.0443    4.2165  -11.1866 C   0  0  0  0  0  0  0  0  0  0  0  0
   -7.6439    5.2933  -10.3687 C   0  0  0  0  0  0  0  0  0  0  0  0
   -7.7956    5.2534   -8.9771 C   0  0  0  0  0  0  0  0  0  0  0  0
   -8.3645    4.1272   -8.4196 C   0  0  0  0  0  0  0  0  0  0  0  0
   -8.7886    3.0795   -9.2375 C   0  0  0  0  0  0  0  0  0  0  0  0
   -8.6338    3.0871  -10.6152 C   0  0  0  0  0  0  0  0  0  0  0  0
   -9.4047    2.0706   -8.3665 C   0  0  0  0  0  0  0  0  0  0  0  0
   -9.9470    1.0464   -8.7207 O   0  0  0  0  0  0  0  0  0  0  0  0
   -9.2992    2.5333   -7.0717 N   0  0  0  0  0  0  0  0  0  0  0  0
   -8.6317    3.8016   -6.9896 C   0  0  0  0  0  0  0  0  0  0  0  0
   -8.2291    4.3917  -15.5616 C   0  0  0  0  0  0  0  0  0  0  0  0
   -8.1350    4.1535  -16.9380 C   0  0  0  0  0  0  0  0  0  0  0  0
   -9.1614    3.3005  -17.6378 C   0  0  0  0  0  0  0  0  0  0  0  0
   -9.1832    3.2432  -19.1446 C   0  0  0  0  0  0  0  0  0  0  0  0
  -10.3218    3.8772  -18.4089 C   0  0  0  0  0  0  0  0  0  0  0  0
   -7.0947    4.5875  -17.6805 N   0  0  0  0  0  0  0  0  0  0  0  0
   -6.0983    5.1771  -17.0113 C   0  0  0  0  0  0  0  0  0  0  0  0
  1  2  1  0
  2  3  1  0
  3  4  1  6
  3  5  1  0
  5  6  1  0
  6  7  2  0
  7  8  1  0
  8  9  2  0
  9 10  1  0
 10 11  2  0
 10 12  1  0
 12 13  1  0
 13 14  2  0
 14 15  1  0
 15 16  2  0
 16 17  1  0
 17 18  2  0
 17 19  1  0
 19 20  2  0
 19 21  1  0
 21 22  1  0
  9 23  1  0
 23 24  2  0
 24 25  1  0
 25 26  1  0
 26 27  1  0
 24 28  1  0
 28 29  2  0
 29  5  1  0
 29  8  1  0
 18 13  1  0
 27 25  1  0
 22 16  1  0
M  END
>  <name>  (555) 
P125252

>  <alias>  (555) 
None

>  <smina_score_min>  (555) 
-8.7

>  <exports>  (555) 
['/opt/xchem-fragalysis-2/maxwin/BulkDock/OUTPUTS/openbind_xx01zvns2b_c2_elabs_1LOUTNY.sdf', '/opt/xchem-fragalysis-2/maxwin/BulkDock/OUTPUTS/openbind_xx01zvns2b_c2_elabs_1LSYIIV.sdf']

>  <tags>  (555) 
syndirella_placed,openbind_xx01zvns2b_c2_elabs,openbind_xx01zvns2b_c2_elabs_scored_6.2plus,syndirella_product,openbind_xx01zvns2b_c2_elabs_scored,openbind_xx01zvns2b_c2_elabs_scored_top80percent,BulkDock Fragalysis export

>  <subsites>  (555) 
1 - Z4590/B/203/1

>  <smiles>  (555) 
CC[C@@H](C)n1ncc2c(C(=O)Nc3ccc4c(c3)C(=O)NC4)cc(C3CC3)nc21

>  <HIPPO Pose ID>  (555) 
125252

>  <energy_score>  (555) 
-57.517807

>  <inchikey>  (555) 
QISOVIMUFSUVNZ-GFCCVEGCSA-N

>  <gnina_score_min>  (555) 
6.251

>  <gnina_score>  (555) 
6.166

>  <ref_mols>  (555) 
Z3559a

>  <HIPPO Compound ID>  (555) 
178187

>  <distance_score>  (555) 
0.467256

>  <rmsd(smina/fragmenstein)>  (555) 
1.065

>  <ref_pdb>  (555) 
Z3559a

>  <inspiration_score>  (555) 
None

$$$$
P125268
     RDKit          3D

 29 33  0  0  0  0  0  0  0  0999 V2000
  -11.6123    2.5309   -4.9070 C   0  0  0  0  0  0  0  0  0  0  0  0
  -10.2829    2.1790   -5.5051 C   0  0  0  0  0  0  0  0  0  0  0  0
  -10.0914    2.9564   -6.7776 C   0  0  0  0  0  0  0  0  0  0  0  0
   -8.7233    2.7930   -7.2253 N   0  0  0  0  0  0  0  0  0  0  0  0
   -8.0525    4.1031   -7.3386 C   0  0  0  0  0  0  0  0  0  0  0  0
   -8.0337    4.4212   -8.7891 C   0  0  0  0  0  0  0  0  0  0  0  0
   -7.6764    5.6019   -9.4024 C   0  0  0  0  0  0  0  0  0  0  0  0
   -7.6211    5.6134  -10.7914 C   0  0  0  0  0  0  0  0  0  0  0  0
   -7.9197    4.4576  -11.5325 C   0  0  0  0  0  0  0  0  0  0  0  0
   -7.7648    4.4541  -12.9095 N   0  0  0  0  0  0  0  0  0  0  0  0
   -7.2611    5.5557  -13.8636 C   0  0  0  0  0  0  0  0  0  0  0  0
   -6.9700    6.6652  -13.6512 O   0  0  0  0  0  0  0  0  0  0  0  0
   -7.2018    5.0717  -15.2485 C   0  0  0  0  0  0  0  0  0  0  0  0
   -8.3313    4.4975  -15.8372 C   0  0  0  0  0  0  0  0  0  0  0  0
   -8.3328    4.2208  -17.2020 C   0  0  0  0  0  0  0  0  0  0  0  0
   -9.6040    3.7355  -17.8507 C   0  0  0  0  0  0  0  0  0  0  0  0
   -9.7871    3.8380  -19.3407 C   0  0  0  0  0  0  0  0  0  0  0  0
   -9.5801    2.4955  -18.7026 C   0  0  0  0  0  0  0  0  0  0  0  0
   -7.2596    4.4571  -17.9911 N   0  0  0  0  0  0  0  0  0  0  0  0
   -6.2008    5.0079  -17.3806 C   0  0  0  0  0  0  0  0  0  0  0  0
   -6.0801    5.3310  -16.0433 C   0  0  0  0  0  0  0  0  0  0  0  0
   -4.7739    5.8802  -15.9243 C   0  0  0  0  0  0  0  0  0  0  0  0
   -4.0912    6.3820  -14.7057 C   0  0  0  0  0  0  0  0  0  0  0  0
   -4.1397    5.9289  -17.1083 N   0  0  0  0  0  0  0  0  0  0  0  0
   -5.0418    5.4134  -17.9734 N   0  0  0  0  0  0  0  0  0  0  0  0
   -4.7632    5.4048  -19.3866 C   0  0  0  0  0  0  0  0  0  0  0  0
   -8.3250    3.2821  -10.8990 C   0  0  0  0  0  0  0  0  0  0  0  0
   -8.3700    3.2838   -9.5194 C   0  0  0  0  0  0  0  0  0  0  0  0
   -8.6766    2.1642   -8.5794 C   0  0  0  0  0  0  0  0  0  0  0  0
  1  2  1  0
  2  3  1  0
  3  4  1  0
  4  5  1  0
  5  6  1  0
  6  7  2  0
  7  8  1  0
  8  9  2  0
  9 10  1  0
 10 11  1  0
 11 12  2  0
 11 13  1  0
 13 14  2  0
 14 15  1  0
 15 16  1  0
 16 17  1  0
 17 18  1  0
 15 19  2  0
 19 20  1  0
 20 21  2  0
 21 22  1  0
 22 23  1  0
 22 24  2  0
 24 25  1  0
 25 26  1  0
  9 27  1  0
 27 28  2  0
 28 29  1  0
 29  4  1  0
 28  6  1  0
 21 13  1  0
 18 16  1  0
 25 20  1  0
M  END
>  <name>  (556) 
P125268

>  <alias>  (556) 
None

>  <smina_score_min>  (556) 
-8.938

>  <exports>  (556) 
['/opt/xchem-fragalysis-2/maxwin/BulkDock/OUTPUTS/openbind_xx01zvns2b_c2_elabs_1LOUTNY.sdf', '/opt/xchem-fragalysis-2/maxwin/BulkDock/OUTPUTS/openbind_xx01zvns2b_c2_elabs_1LSYIIV.sdf']

>  <tags>  (556) 
syndirella_placed,openbind_xx01zvns2b_c2_elabs,openbind_xx01zvns2b_c2_elabs_scored_6.2plus,syndirella_product,openbind_xx01zvns2b_c2_elabs_scored,openbind_xx01zvns2b_c2_elabs_scored_top80percent,BulkDock Fragalysis export

>  <subsites>  (556) 
1 - Z4590/B/203/1

>  <smiles>  (556) 
CCCN1Cc2ccc(NC(=O)c3cc(C4CC4)nc4c3c(C)nn4C)cc2C1

>  <HIPPO Pose ID>  (556) 
125268

>  <energy_score>  (556) 
-23.314095

>  <inchikey>  (556) 
XMKWCKQNUYIIBI-UHFFFAOYSA-N

>  <gnina_score_min>  (556) 
6.459

>  <gnina_score>  (556) 
6.327

>  <ref_mols>  (556) 
Z3559a

>  <HIPPO Compound ID>  (556) 
178070

>  <distance_score>  (556) 
0.549826

>  <rmsd(smina/fragmenstein)>  (556) 
0.966

>  <ref_pdb>  (556) 
Z3559a

>  <inspiration_score>  (556) 
None

$$$$
P125270
     RDKit          3D

 30 34  0  0  0  0  0  0  0  0999 V2000
   -3.6283    6.2737  -14.4754 C   0  0  0  0  0  0  0  0  0  0  0  0
   -4.4051    5.8402  -15.6649 C   0  0  0  0  0  0  0  0  0  0  0  0
   -3.8352    5.8991  -16.8805 N   0  0  0  0  0  0  0  0  0  0  0  0
   -4.7967    5.4422  -17.7085 N   0  0  0  0  0  0  0  0  0  0  0  0
   -4.5824    5.4419  -19.1338 C   0  0  0  0  0  0  0  0  0  0  0  0
   -5.9405    5.0717  -17.0652 C   0  0  0  0  0  0  0  0  0  0  0  0
   -7.0360    4.5644  -17.6470 N   0  0  0  0  0  0  0  0  0  0  0  0
   -8.0960    4.3678  -16.8301 C   0  0  0  0  0  0  0  0  0  0  0  0
   -9.3761    3.8532  -17.4994 C   0  0  0  0  0  0  0  0  0  0  0  0
   -9.3008    2.7507  -18.5346 C   0  0  0  0  0  0  0  0  0  0  0  0
   -9.6573    4.1415  -18.9570 C   0  0  0  0  0  0  0  0  0  0  0  0
   -8.0230    4.6883  -15.4567 C   0  0  0  0  0  0  0  0  0  0  0  0
   -9.4511    4.7324  -14.5090 Cl  0  0  0  0  0  0  0  0  0  0  0  0
   -6.8252    5.1300  -14.8621 C   0  0  0  0  0  0  0  0  0  0  0  0
   -6.7672    5.5593  -13.4326 C   0  0  0  0  0  0  0  0  0  0  0  0
   -6.3667    6.6364  -13.2113 O   0  0  0  0  0  0  0  0  0  0  0  0
   -7.3649    4.4895  -12.4741 N   0  0  0  0  0  0  0  0  0  0  0  0
   -7.6692    4.5603  -11.1104 C   0  0  0  0  0  0  0  0  0  0  0  0
   -7.5194    5.7545  -10.3930 C   0  0  0  0  0  0  0  0  0  0  0  0
   -7.8293    5.8210   -9.0271 C   0  0  0  0  0  0  0  0  0  0  0  0
   -8.2843    4.6802   -8.3826 C   0  0  0  0  0  0  0  0  0  0  0  0
   -8.4638    3.5003   -9.1031 C   0  0  0  0  0  0  0  0  0  0  0  0
   -8.1765    3.4243  -10.4647 C   0  0  0  0  0  0  0  0  0  0  0  0
   -8.9636    2.4280   -8.1893 C   0  0  0  0  0  0  0  0  0  0  0  0
   -8.8381    2.9848   -6.8174 N   0  0  0  0  0  0  0  0  0  0  0  0
   -9.9381    2.5679   -5.9685 C   0  0  0  0  0  0  0  0  0  0  0  0
   -8.5091    4.4304   -6.9043 C   0  0  0  0  0  0  0  0  0  0  0  0
   -9.5070    5.3878   -6.2270 C   0  0  0  0  0  0  0  0  0  0  0  0
   -7.1646    4.6684   -6.1851 C   0  0  0  0  0  0  0  0  0  0  0  0
   -5.7422    5.3553  -15.7232 C   0  0  0  0  0  0  0  0  0  0  0  0
  1  2  1  0
  2  3  2  0
  3  4  1  0
  4  5  1  0
  4  6  1  0
  6  7  2  0
  7  8  1  0
  8  9  1  0
  9 10  1  0
 10 11  1  0
  8 12  2  0
 12 13  1  0
 12 14  1  0
 14 15  1  0
 15 16  2  0
 15 17  1  0
 17 18  1  0
 18 19  2  0
 19 20  1  0
 20 21  2  0
 21 22  1  0
 22 23  2  0
 22 24  1  0
 24 25  1  0
 25 26  1  0
 25 27  1  0
 27 28  1  0
 27 29  1  0
 14 30  2  0
 30  2  1  0
 30  6  1  0
 11  9  1  0
 23 18  1  0
 27 21  1  0
M  END
>  <name>  (557) 
P125270

>  <alias>  (557) 
None

>  <smina_score_min>  (557) 
-8.006

>  <exports>  (557) 
['/opt/xchem-fragalysis-2/maxwin/BulkDock/OUTPUTS/openbind_xx01zvns2b_c2_elabs_1LOUTNY.sdf', '/opt/xchem-fragalysis-2/maxwin/BulkDock/OUTPUTS/openbind_xx01zvns2b_c2_elabs_1LSYIIV.sdf']

>  <tags>  (557) 
syndirella_placed,openbind_xx01zvns2b_c2_elabs,openbind_xx01zvns2b_c2_elabs_scored_6.2plus,syndirella_product,openbind_xx01zvns2b_c2_elabs_scored,openbind_xx01zvns2b_c2_elabs_scored_top80percent,BulkDock Fragalysis export

>  <subsites>  (557) 
1 - Z4590/B/203/1

>  <smiles>  (557) 
Cc1nn(C)c2nc(C3CC3)c(Cl)c(C(=O)Nc3ccc4c(c3)CN(C)C4(C)C)c12

>  <HIPPO Pose ID>  (557) 
125270

>  <energy_score>  (557) 
-63.255606

>  <inchikey>  (557) 
TVSUHECXPLRVOE-UHFFFAOYSA-N

>  <gnina_score_min>  (557) 
6.42

>  <gnina_score>  (557) 
6.465

>  <ref_mols>  (557) 
Z3559a

>  <HIPPO Compound ID>  (557) 
178316

>  <distance_score>  (557) 
0.659107

>  <rmsd(smina/fragmenstein)>  (557) 
0.325

>  <ref_pdb>  (557) 
Z3559a

>  <inspiration_score>  (557) 
None

$$$$
P125271
     RDKit          3D

 30 34  0  0  0  0  0  0  0  0999 V2000
  -10.7653    2.8292   -5.4667 C   0  0  0  0  0  0  0  0  0  0  0  0
   -9.6713    2.1412   -6.2604 C   0  0  0  0  0  0  0  0  0  0  0  0
   -9.2927    2.8687   -7.4434 N   0  0  0  0  0  0  0  0  0  0  0  0
   -9.0641    2.1720   -8.7000 C   0  0  0  0  0  0  0  0  0  0  0  0
   -8.3944    3.2185   -9.5223 C   0  0  0  0  0  0  0  0  0  0  0  0
   -8.0430    3.2080  -10.8583 C   0  0  0  0  0  0  0  0  0  0  0  0
   -7.4121    4.3450  -11.3875 C   0  0  0  0  0  0  0  0  0  0  0  0
   -7.1643    4.3639  -12.7555 N   0  0  0  0  0  0  0  0  0  0  0  0
   -6.6357    5.4998  -13.6667 C   0  0  0  0  0  0  0  0  0  0  0  0
   -6.2538    6.5703  -13.3976 O   0  0  0  0  0  0  0  0  0  0  0  0
   -6.7537    5.1257  -15.0973 C   0  0  0  0  0  0  0  0  0  0  0  0
   -7.9771    4.6882  -15.6406 C   0  0  0  0  0  0  0  0  0  0  0  0
   -9.3731    4.7141  -14.6339 Cl  0  0  0  0  0  0  0  0  0  0  0  0
   -8.0932    4.3642  -17.0055 C   0  0  0  0  0  0  0  0  0  0  0  0
   -9.3935    3.8428  -17.6215 C   0  0  0  0  0  0  0  0  0  0  0  0
   -9.3510    2.6994  -18.6107 C   0  0  0  0  0  0  0  0  0  0  0  0
   -9.7054    4.0767  -19.0800 C   0  0  0  0  0  0  0  0  0  0  0  0
   -7.0577    4.5546  -17.8561 N   0  0  0  0  0  0  0  0  0  0  0  0
   -5.9410    5.0622  -17.3152 C   0  0  0  0  0  0  0  0  0  0  0  0
   -5.6977    5.3494  -15.9836 C   0  0  0  0  0  0  0  0  0  0  0  0
   -4.3580    5.8241  -15.9618 C   0  0  0  0  0  0  0  0  0  0  0  0
   -3.5479    6.2599  -14.7961 C   0  0  0  0  0  0  0  0  0  0  0  0
   -3.8215    5.8684  -17.1925 N   0  0  0  0  0  0  0  0  0  0  0  0
   -4.8149    5.4251  -17.9925 N   0  0  0  0  0  0  0  0  0  0  0  0
   -4.6489    5.4270  -19.4238 C   0  0  0  0  0  0  0  0  0  0  0  0
   -7.1389    5.4603  -10.5780 C   0  0  0  0  0  0  0  0  0  0  0  0
   -7.4955    5.4618   -9.2286 C   0  0  0  0  0  0  0  0  0  0  0  0
   -8.1201    4.3341   -8.7374 C   0  0  0  0  0  0  0  0  0  0  0  0
   -8.6203    4.0783   -7.3869 C   0  0  0  0  0  0  0  0  0  0  0  0
   -8.4441    4.8189   -6.4365 O   0  0  0  0  0  0  0  0  0  0  0  0
  1  2  1  0
  2  3  1  0
  3  4  1  0
  4  5  1  0
  5  6  2  0
  6  7  1  0
  7  8  1  0
  8  9  1  0
  9 10  2  0
  9 11  1  0
 11 12  2  0
 12 13  1  0
 12 14  1  0
 14 15  1  0
 15 16  1  0
 16 17  1  0
 14 18  2  0
 18 19  1  0
 19 20  2  0
 20 21  1  0
 21 22  1  0
 21 23  2  0
 23 24  1  0
 24 25  1  0
  7 26  2  0
 26 27  1  0
 27 28  2  0
 28 29  1  0
 29 30  2  0
 29  3  1  0
 28  5  1  0
 20 11  1  0
 17 15  1  0
 24 19  1  0
M  END
>  <name>  (558) 
P125271

>  <alias>  (558) 
None

>  <smina_score_min>  (558) 
-8.668

>  <exports>  (558) 
['/opt/xchem-fragalysis-2/maxwin/BulkDock/OUTPUTS/openbind_xx01zvns2b_c2_elabs_1LOUTNY.sdf', '/opt/xchem-fragalysis-2/maxwin/BulkDock/OUTPUTS/openbind_xx01zvns2b_c2_elabs_1LSYIIV.sdf']

>  <tags>  (558) 
syndirella_placed,openbind_xx01zvns2b_c2_elabs,openbind_xx01zvns2b_c2_elabs_scored_6.2plus,syndirella_product,openbind_xx01zvns2b_c2_elabs_scored,openbind_xx01zvns2b_c2_elabs_scored_top80percent,BulkDock Fragalysis export

>  <subsites>  (558) 
1 - Z4590/B/203/1

>  <smiles>  (558) 
CCN1Cc2cc(NC(=O)c3c(Cl)c(C4CC4)nc4c3c(C)nn4C)ccc2C1=O

>  <HIPPO Pose ID>  (558) 
125271

>  <energy_score>  (558) 
-36.588475

>  <inchikey>  (558) 
SSPZXOYREMHTJF-UHFFFAOYSA-N

>  <gnina_score_min>  (558) 
6.429

>  <gnina_score>  (558) 
6.453

>  <ref_mols>  (558) 
Z3559a

>  <HIPPO Compound ID>  (558) 
178372

>  <distance_score>  (558) 
0.660203

>  <rmsd(smina/fragmenstein)>  (558) 
0.335

>  <ref_pdb>  (558) 
Z3559a

>  <inspiration_score>  (558) 
None

$$$$
P125272
     RDKit          3D

 30 34  0  0  0  0  0  0  0  0999 V2000
   -3.4453    6.4063  -14.6390 C   0  0  0  0  0  0  0  0  0  0  0  0
   -4.2143    5.9424  -15.8218 C   0  0  0  0  0  0  0  0  0  0  0  0
   -3.6514    5.9772  -17.0411 N   0  0  0  0  0  0  0  0  0  0  0  0
   -4.6222    5.5122  -17.8575 N   0  0  0  0  0  0  0  0  0  0  0  0
   -4.4098    5.4822  -19.2827 C   0  0  0  0  0  0  0  0  0  0  0  0
   -5.7641    5.1527  -17.2010 C   0  0  0  0  0  0  0  0  0  0  0  0
   -6.8715    4.6341  -17.7568 N   0  0  0  0  0  0  0  0  0  0  0  0
   -7.9154    4.4259  -16.9146 C   0  0  0  0  0  0  0  0  0  0  0  0
   -9.2016    3.8655  -17.5334 C   0  0  0  0  0  0  0  0  0  0  0  0
   -9.1321    2.7868  -18.5919 C   0  0  0  0  0  0  0  0  0  0  0  0
   -9.5674    4.1690  -18.9664 C   0  0  0  0  0  0  0  0  0  0  0  0
   -7.8227    4.7492  -15.5469 C   0  0  0  0  0  0  0  0  0  0  0  0
   -9.2274    4.7164  -14.5410 Cl  0  0  0  0  0  0  0  0  0  0  0  0
   -6.6117    5.2078  -14.9946 C   0  0  0  0  0  0  0  0  0  0  0  0
   -6.5247    5.5567  -13.5585 C   0  0  0  0  0  0  0  0  0  0  0  0
   -6.3140    6.7057  -13.2984 O   0  0  0  0  0  0  0  0  0  0  0  0
   -6.8092    4.4333  -12.7030 N   0  0  0  0  0  0  0  0  0  0  0  0
   -7.0190    4.3595  -11.3125 C   0  0  0  0  0  0  0  0  0  0  0  0
   -7.7962    3.2423  -10.9385 C   0  0  0  0  0  0  0  0  0  0  0  0
   -8.2185    3.1256   -9.6330 C   0  0  0  0  0  0  0  0  0  0  0  0
   -7.9030    4.0426   -8.6869 C   0  0  0  0  0  0  0  0  0  0  0  0
   -7.0820    5.1090   -8.9760 C   0  0  0  0  0  0  0  0  0  0  0  0
   -6.6195    5.2637  -10.3019 C   0  0  0  0  0  0  0  0  0  0  0  0
   -5.2991    6.6120  -10.5218 Br  0  0  0  0  0  0  0  0  0  0  0  0
   -8.5694    3.5021   -7.4792 C   0  0  0  0  0  0  0  0  0  0  0  0
   -9.8699    2.7626   -7.8085 N   0  0  0  0  0  0  0  0  0  0  0  0
  -10.4308    2.2245   -6.6326 C   0  0  0  0  0  0  0  0  0  0  0  0
  -10.2843    1.1558   -6.1184 O   0  0  0  0  0  0  0  0  0  0  0  0
   -8.9861    2.1241   -8.8684 C   0  0  0  0  0  0  0  0  0  0  0  0
   -5.5456    5.4473  -15.8656 C   0  0  0  0  0  0  0  0  0  0  0  0
  1  2  1  0
  2  3  2  0
  3  4  1  0
  4  5  1  0
  4  6  1  0
  6  7  2  0
  7  8  1  0
  8  9  1  0
  9 10  1  0
 10 11  1  0
  8 12  2  0
 12 13  1  0
 12 14  1  0
 14 15  1  0
 15 16  2  0
 15 17  1  0
 17 18  1  0
 18 19  2  0
 19 20  1  0
 20 21  2  0
 21 22  1  0
 22 23  2  0
 23 24  1  0
 21 25  1  0
 25 26  1  0
 26 27  1  0
 27 28  2  0
 26 29  1  0
 14 30  2  0
 30  2  1  0
 30  6  1  0
 11  9  1  0
 23 18  1  0
 29 20  1  0
M  END
>  <name>  (559) 
P125272

>  <alias>  (559) 
None

>  <smina_score_min>  (559) 
-7.889

>  <exports>  (559) 
['/opt/xchem-fragalysis-2/maxwin/BulkDock/OUTPUTS/openbind_xx01zvns2b_c2_elabs_1LOUTNY.sdf', '/opt/xchem-fragalysis-2/maxwin/BulkDock/OUTPUTS/openbind_xx01zvns2b_c2_elabs_1LSYIIV.sdf']

>  <tags>  (559) 
syndirella_placed,openbind_xx01zvns2b_c2_elabs,openbind_xx01zvns2b_c2_elabs_scored_6.2plus,syndirella_product,openbind_xx01zvns2b_c2_elabs_scored,openbind_xx01zvns2b_c2_elabs_scored_top80percent,BulkDock Fragalysis export

>  <subsites>  (559) 
1 - Z4590/B/203/1

>  <smiles>  (559) 
Cc1nn(C)c2nc(C3CC3)c(Cl)c(C(=O)Nc3cc4c(cc3Br)CN(C=O)C4)c12

>  <HIPPO Pose ID>  (559) 
125272

>  <energy_score>  (559) 
-10.171108

>  <inchikey>  (559) 
BWYCWBQDTKVTKP-UHFFFAOYSA-N

>  <gnina_score_min>  (559) 
6.48

>  <gnina_score>  (559) 
6.402

>  <ref_mols>  (559) 
Z3559a

>  <HIPPO Compound ID>  (559) 
178373

>  <distance_score>  (559) 
0.87492

>  <rmsd(smina/fragmenstein)>  (559) 
0.498

>  <ref_pdb>  (559) 
Z3559a

>  <inspiration_score>  (559) 
None

$$$$
P125273
     RDKit          3D

 30 34  0  0  0  0  0  0  0  0999 V2000
  -10.3709    1.5158   -5.9202 C   0  0  0  0  0  0  0  0  0  0  0  0
   -9.9176    2.9426   -6.0230 C   0  0  0  0  0  0  0  0  0  0  0  0
   -9.0991    3.2378   -7.1774 N   0  0  0  0  0  0  0  0  0  0  0  0
   -8.3104    4.4437   -7.1758 C   0  0  0  0  0  0  0  0  0  0  0  0
   -7.9017    4.5779   -8.5934 C   0  0  0  0  0  0  0  0  0  0  0  0
   -7.1795    5.5909   -9.1857 C   0  0  0  0  0  0  0  0  0  0  0  0
   -6.9478    5.5091  -10.5578 C   0  0  0  0  0  0  0  0  0  0  0  0
   -7.4219    4.4227  -11.3135 C   0  0  0  0  0  0  0  0  0  0  0  0
   -7.2237    4.3946  -12.6908 N   0  0  0  0  0  0  0  0  0  0  0  0
   -6.5732    5.4387  -13.6369 C   0  0  0  0  0  0  0  0  0  0  0  0
   -6.0348    6.4479  -13.3954 O   0  0  0  0  0  0  0  0  0  0  0  0
   -6.7411    5.0755  -15.0697 C   0  0  0  0  0  0  0  0  0  0  0  0
   -7.9780    4.6673  -15.6059 C   0  0  0  0  0  0  0  0  0  0  0  0
   -9.3719    4.7356  -14.5989 Cl  0  0  0  0  0  0  0  0  0  0  0  0
   -8.1132    4.3562  -16.9743 C   0  0  0  0  0  0  0  0  0  0  0  0
   -9.4202    3.8464  -17.5854 C   0  0  0  0  0  0  0  0  0  0  0  0
   -9.3848    2.7152  -18.5904 C   0  0  0  0  0  0  0  0  0  0  0  0
   -9.7445    4.0978  -19.0392 C   0  0  0  0  0  0  0  0  0  0  0  0
   -7.0896    4.5480  -17.8381 N   0  0  0  0  0  0  0  0  0  0  0  0
   -5.9614    5.0367  -17.3074 C   0  0  0  0  0  0  0  0  0  0  0  0
   -5.6935    5.2973  -15.9750 C   0  0  0  0  0  0  0  0  0  0  0  0
   -4.3409    5.7461  -15.9734 C   0  0  0  0  0  0  0  0  0  0  0  0
   -3.4816    6.1257  -14.8229 C   0  0  0  0  0  0  0  0  0  0  0  0
   -3.8336    5.8196  -17.2151 N   0  0  0  0  0  0  0  0  0  0  0  0
   -4.8450    5.3982  -18.0006 N   0  0  0  0  0  0  0  0  0  0  0  0
   -4.7045    5.4166  -19.4343 C   0  0  0  0  0  0  0  0  0  0  0  0
   -8.1624    3.4013  -10.7051 C   0  0  0  0  0  0  0  0  0  0  0  0
   -8.3907    3.5119   -9.3442 C   0  0  0  0  0  0  0  0  0  0  0  0
   -9.2117    2.6813   -8.4497 C   0  0  0  0  0  0  0  0  0  0  0  0
   -9.8984    1.7553   -8.8316 O   0  0  0  0  0  0  0  0  0  0  0  0
  1  2  1  0
  2  3  1  0
  3  4  1  0
  4  5  1  0
  5  6  2  0
  6  7  1  0
  7  8  2  0
  8  9  1  0
  9 10  1  0
 10 11  2  0
 10 12  1  0
 12 13  2  0
 13 14  1  0
 13 15  1  0
 15 16  1  0
 16 17  1  0
 17 18  1  0
 15 19  2  0
 19 20  1  0
 20 21  2  0
 21 22  1  0
 22 23  1  0
 22 24  2  0
 24 25  1  0
 25 26  1  0
  8 27  1  0
 27 28  2  0
 28 29  1  0
 29 30  2  0
 29  3  1  0
 28  5  1  0
 21 12  1  0
 18 16  1  0
 25 20  1  0
M  END
>  <name>  (560) 
P125273

>  <alias>  (560) 
None

>  <smina_score_min>  (560) 
-7.817

>  <exports>  (560) 
['/opt/xchem-fragalysis-2/maxwin/BulkDock/OUTPUTS/openbind_xx01zvns2b_c2_elabs_1LOUTNY.sdf', '/opt/xchem-fragalysis-2/maxwin/BulkDock/OUTPUTS/openbind_xx01zvns2b_c2_elabs_1LSYIIV.sdf']

>  <tags>  (560) 
syndirella_placed,openbind_xx01zvns2b_c2_elabs,openbind_xx01zvns2b_c2_elabs_scored_6.2plus,syndirella_product,openbind_xx01zvns2b_c2_elabs_scored,openbind_xx01zvns2b_c2_elabs_scored_top80percent,BulkDock Fragalysis export

>  <subsites>  (560) 
1 - Z4590/B/203/1

>  <smiles>  (560) 
CCN1Cc2ccc(NC(=O)c3c(Cl)c(C4CC4)nc4c3c(C)nn4C)cc2C1=O

>  <HIPPO Pose ID>  (560) 
125273

>  <energy_score>  (560) 
-36.677983

>  <inchikey>  (560) 
AHYRVETWRXNEHG-UHFFFAOYSA-N

>  <gnina_score_min>  (560) 
6.267

>  <gnina_score>  (560) 
6.358

>  <ref_mols>  (560) 
Z3559a

>  <HIPPO Compound ID>  (560) 
178376

>  <distance_score>  (560) 
0.744727

>  <rmsd(smina/fragmenstein)>  (560) 
0.864

>  <ref_pdb>  (560) 
Z3559a

>  <inspiration_score>  (560) 
None

$$$$
P125276
     RDKit          3D

 30 34  0  0  0  0  0  0  0  0999 V2000
   -4.1117    6.2800  -14.1458 C   0  0  0  0  0  0  0  0  0  0  0  0
   -4.7544    5.8910  -15.4264 C   0  0  0  0  0  0  0  0  0  0  0  0
   -4.0847    6.0510  -16.5742 N   0  0  0  0  0  0  0  0  0  0  0  0
   -4.9490    5.6258  -17.5336 N   0  0  0  0  0  0  0  0  0  0  0  0
   -4.6001    5.8901  -18.9413 C   0  0  0  0  0  0  0  0  0  0  0  0
   -3.1219    5.5264  -19.2039 C   0  0  0  0  0  0  0  0  0  0  0  0
   -4.7892    7.3978  -19.2151 C   0  0  0  0  0  0  0  0  0  0  0  0
   -5.4676    5.1228  -19.9464 C   0  0  0  0  0  0  0  0  0  0  0  0
   -6.1240    5.1407  -17.0048 C   0  0  0  0  0  0  0  0  0  0  0  0
   -7.1722    4.6264  -17.6697 N   0  0  0  0  0  0  0  0  0  0  0  0
   -8.2515    4.2889  -16.9253 C   0  0  0  0  0  0  0  0  0  0  0  0
   -9.4920    3.7906  -17.6406 C   0  0  0  0  0  0  0  0  0  0  0  0
   -9.3929    2.6447  -18.6169 C   0  0  0  0  0  0  0  0  0  0  0  0
   -9.6887    4.0255  -19.1172 C   0  0  0  0  0  0  0  0  0  0  0  0
   -8.2872    4.4724  -15.5416 C   0  0  0  0  0  0  0  0  0  0  0  0
   -7.1854    5.0275  -14.8865 C   0  0  0  0  0  0  0  0  0  0  0  0
   -7.2785    5.4546  -13.4775 C   0  0  0  0  0  0  0  0  0  0  0  0
   -7.0402    6.5717  -13.2357 O   0  0  0  0  0  0  0  0  0  0  0  0
   -7.6739    4.2906  -12.5432 N   0  0  0  0  0  0  0  0  0  0  0  0
   -7.9422    4.2787  -11.1753 C   0  0  0  0  0  0  0  0  0  0  0  0
   -7.7395    5.4348  -10.4019 C   0  0  0  0  0  0  0  0  0  0  0  0
   -7.9749    5.4307   -9.0253 C   0  0  0  0  0  0  0  0  0  0  0  0
   -8.4115    4.2568   -8.4433 C   0  0  0  0  0  0  0  0  0  0  0  0
   -8.6207    3.1108   -9.2052 C   0  0  0  0  0  0  0  0  0  0  0  0
   -8.3930    3.1010  -10.5742 C   0  0  0  0  0  0  0  0  0  0  0  0
   -9.1156    2.0109   -8.3196 C   0  0  0  0  0  0  0  0  0  0  0  0
   -9.0256    2.5443   -6.9413 N   0  0  0  0  0  0  0  0  0  0  0  0
  -10.1666    2.2022   -6.1156 C   0  0  0  0  0  0  0  0  0  0  0  0
   -8.7542    3.9851   -7.0156 C   0  0  0  0  0  0  0  0  0  0  0  0
   -6.0472    5.3503  -15.6381 C   0  0  0  0  0  0  0  0  0  0  0  0
  1  2  1  0
  2  3  2  0
  3  4  1  0
  4  5  1  0
  5  6  1  0
  5  7  1  0
  5  8  1  0
  4  9  1  0
  9 10  2  0
 10 11  1  0
 11 12  1  0
 12 13  1  0
 13 14  1  0
 11 15  2  0
 15 16  1  0
 16 17  1  0
 17 18  2  0
 17 19  1  0
 19 20  1  0
 20 21  2  0
 21 22  1  0
 22 23  2  0
 23 24  1  0
 24 25  2  0
 24 26  1  0
 26 27  1  0
 27 28  1  0
 27 29  1  0
 16 30  2  0
 30  2  1  0
 30  9  1  0
 14 12  1  0
 25 20  1  0
 29 23  1  0
M  END
>  <name>  (561) 
P125276

>  <alias>  (561) 
None

>  <smina_score_min>  (561) 
-9.502

>  <exports>  (561) 
['/opt/xchem-fragalysis-2/maxwin/BulkDock/OUTPUTS/openbind_xx01zvns2b_c2_elabs_1LOUTNY.sdf', '/opt/xchem-fragalysis-2/maxwin/BulkDock/OUTPUTS/openbind_xx01zvns2b_c2_elabs_1LSYIIV.sdf']

>  <tags>  (561) 
syndirella_placed,openbind_xx01zvns2b_c2_elabs,openbind_xx01zvns2b_c2_elabs_scored_6.2plus,syndirella_product,openbind_xx01zvns2b_c2_elabs_scored,openbind_xx01zvns2b_c2_elabs_scored_top80percent,BulkDock Fragalysis export

>  <subsites>  (561) 
1 - Z4590/B/203/1

>  <smiles>  (561) 
Cc1nn(C(C)(C)C)c2nc(C3CC3)cc(C(=O)Nc3ccc4c(c3)CN(C)C4)c12

>  <HIPPO Pose ID>  (561) 
125276

>  <energy_score>  (561) 
-25.193011

>  <inchikey>  (561) 
SXMVZGPKYZUHPD-UHFFFAOYSA-N

>  <gnina_score_min>  (561) 
6.381

>  <gnina_score>  (561) 
6.329

>  <ref_mols>  (561) 
Z3559a

>  <HIPPO Compound ID>  (561) 
178359

>  <distance_score>  (561) 
0.4177

>  <rmsd(smina/fragmenstein)>  (561) 
0.793

>  <ref_pdb>  (561) 
Z3559a

>  <inspiration_score>  (561) 
None

$$$$
P125277
     RDKit          3D

 30 34  0  0  0  0  0  0  0  0999 V2000
   -4.2809    6.6122  -14.0987 C   0  0  0  0  0  0  0  0  0  0  0  0
   -4.8425    6.1290  -15.3855 C   0  0  0  0  0  0  0  0  0  0  0  0
   -4.1334    6.2922  -16.5093 N   0  0  0  0  0  0  0  0  0  0  0  0
   -4.9172    5.7673  -17.4870 N   0  0  0  0  0  0  0  0  0  0  0  0
   -4.5017    5.9649  -18.8880 C   0  0  0  0  0  0  0  0  0  0  0  0
   -3.0394    5.5070  -19.0711 C   0  0  0  0  0  0  0  0  0  0  0  0
   -5.3728    5.2245  -19.9128 C   0  0  0  0  0  0  0  0  0  0  0  0
   -4.5931    7.4721  -19.2173 C   0  0  0  0  0  0  0  0  0  0  0  0
   -6.0722    5.2156  -16.9864 C   0  0  0  0  0  0  0  0  0  0  0  0
   -7.0234    4.5640  -17.6691 N   0  0  0  0  0  0  0  0  0  0  0  0
   -8.0896    4.1392  -16.9599 C   0  0  0  0  0  0  0  0  0  0  0  0
   -9.0946    3.2692  -17.6704 C   0  0  0  0  0  0  0  0  0  0  0  0
   -9.0846    3.1806  -19.1745 C   0  0  0  0  0  0  0  0  0  0  0  0
  -10.2341    3.8395  -18.4768 C   0  0  0  0  0  0  0  0  0  0  0  0
   -8.2429    4.4198  -15.6013 C   0  0  0  0  0  0  0  0  0  0  0  0
   -7.2338    5.1061  -14.9176 C   0  0  0  0  0  0  0  0  0  0  0  0
   -7.3958    5.5109  -13.5035 C   0  0  0  0  0  0  0  0  0  0  0  0
   -7.1660    6.6213  -13.2258 O   0  0  0  0  0  0  0  0  0  0  0  0
   -7.7695    4.3099  -12.6047 N   0  0  0  0  0  0  0  0  0  0  0  0
   -8.0223    4.2480  -11.2343 C   0  0  0  0  0  0  0  0  0  0  0  0
   -7.8533    5.3869  -10.4219 C   0  0  0  0  0  0  0  0  0  0  0  0
   -8.0320    5.3162   -9.0373 C   0  0  0  0  0  0  0  0  0  0  0  0
   -8.3978    4.0964   -8.5071 C   0  0  0  0  0  0  0  0  0  0  0  0
   -8.5958    2.9655   -9.2953 C   0  0  0  0  0  0  0  0  0  0  0  0
   -8.4032    3.0240  -10.6680 C   0  0  0  0  0  0  0  0  0  0  0  0
   -8.9708    1.8114   -8.4263 C   0  0  0  0  0  0  0  0  0  0  0  0
   -9.0602    2.4138   -7.1121 N   0  0  0  0  0  0  0  0  0  0  0  0
   -8.6282    3.7223   -7.1064 C   0  0  0  0  0  0  0  0  0  0  0  0
   -8.4423    4.4396   -6.1416 O   0  0  0  0  0  0  0  0  0  0  0  0
   -6.0853    5.4909  -15.6291 C   0  0  0  0  0  0  0  0  0  0  0  0
  1  2  1  0
  2  3  2  0
  3  4  1  0
  4  5  1  0
  5  6  1  0
  5  7  1  0
  5  8  1  0
  4  9  1  0
  9 10  2  0
 10 11  1  0
 11 12  1  0
 12 13  1  0
 13 14  1  0
 11 15  2  0
 15 16  1  0
 16 17  1  0
 17 18  2  0
 17 19  1  0
 19 20  1  0
 20 21  2  0
 21 22  1  0
 22 23  2  0
 23 24  1  0
 24 25  2  0
 24 26  1  0
 26 27  1  0
 27 28  1  0
 28 29  2  0
 16 30  2  0
 30  2  1  0
 30  9  1  0
 14 12  1  0
 25 20  1  0
 28 23  1  0
M  END
>  <name>  (562) 
P125277

>  <alias>  (562) 
None

>  <smina_score_min>  (562) 
-9.508

>  <exports>  (562) 
['/opt/xchem-fragalysis-2/maxwin/BulkDock/OUTPUTS/openbind_xx01zvns2b_c2_elabs_1LOUTNY.sdf', '/opt/xchem-fragalysis-2/maxwin/BulkDock/OUTPUTS/openbind_xx01zvns2b_c2_elabs_1LSYIIV.sdf']

>  <tags>  (562) 
syndirella_placed,openbind_xx01zvns2b_c2_elabs,openbind_xx01zvns2b_c2_elabs_scored_6.2plus,syndirella_product,openbind_xx01zvns2b_c2_elabs_scored,openbind_xx01zvns2b_c2_elabs_scored_top80percent,BulkDock Fragalysis export

>  <subsites>  (562) 
1 - Z4590/B/203/1

>  <smiles>  (562) 
Cc1nn(C(C)(C)C)c2nc(C3CC3)cc(C(=O)Nc3ccc4c(c3)CNC4=O)c12

>  <HIPPO Pose ID>  (562) 
125277

>  <energy_score>  (562) 
-52.933395

>  <inchikey>  (562) 
ZEAAJBULEYXZAV-UHFFFAOYSA-N

>  <gnina_score_min>  (562) 
6.399

>  <gnina_score>  (562) 
6.326

>  <ref_mols>  (562) 
Z3559a

>  <HIPPO Compound ID>  (562) 
178366

>  <distance_score>  (562) 
0.508568

>  <rmsd(smina/fragmenstein)>  (562) 
0.77

>  <ref_pdb>  (562) 
Z3559a

>  <inspiration_score>  (562) 
None

$$$$
P125278
     RDKit          3D

 30 34  0  0  0  0  0  0  0  0999 V2000
   -4.0933    6.1464  -14.0724 C   0  0  0  0  0  0  0  0  0  0  0  0
   -4.7638    5.8153  -15.3552 C   0  0  0  0  0  0  0  0  0  0  0  0
   -4.1005    6.0065  -16.5014 N   0  0  0  0  0  0  0  0  0  0  0  0
   -4.9665    5.6077  -17.4677 N   0  0  0  0  0  0  0  0  0  0  0  0
   -4.6096    5.8866  -18.8712 C   0  0  0  0  0  0  0  0  0  0  0  0
   -4.7885    7.3987  -19.1271 C   0  0  0  0  0  0  0  0  0  0  0  0
   -5.4783    5.1366  -19.8894 C   0  0  0  0  0  0  0  0  0  0  0  0
   -3.1322    5.5179  -19.1324 C   0  0  0  0  0  0  0  0  0  0  0  0
   -6.1467    5.1261  -16.9471 C   0  0  0  0  0  0  0  0  0  0  0  0
   -7.1969    4.6359  -17.6255 N   0  0  0  0  0  0  0  0  0  0  0  0
   -8.2783    4.2882  -16.8916 C   0  0  0  0  0  0  0  0  0  0  0  0
   -9.5144    3.8032  -17.6244 C   0  0  0  0  0  0  0  0  0  0  0  0
   -9.6882    4.0384  -19.1043 C   0  0  0  0  0  0  0  0  0  0  0  0
   -9.4107    2.6558  -18.5993 C   0  0  0  0  0  0  0  0  0  0  0  0
   -8.3166    4.4442  -15.5034 C   0  0  0  0  0  0  0  0  0  0  0  0
   -7.2121    4.9709  -14.8254 C   0  0  0  0  0  0  0  0  0  0  0  0
   -7.2957    5.3564  -13.3963 C   0  0  0  0  0  0  0  0  0  0  0  0
   -6.8849    6.4117  -13.1092 O   0  0  0  0  0  0  0  0  0  0  0  0
   -7.9314    4.2541  -12.5157 N   0  0  0  0  0  0  0  0  0  0  0  0
   -8.1014    4.1850  -11.1313 C   0  0  0  0  0  0  0  0  0  0  0  0
   -7.7021    5.2661  -10.3180 C   0  0  0  0  0  0  0  0  0  0  0  0
   -7.8309    5.2220   -8.9248 C   0  0  0  0  0  0  0  0  0  0  0  0
   -8.3817    4.0896   -8.3621 C   0  0  0  0  0  0  0  0  0  0  0  0
   -8.8032    3.0369   -9.1753 C   0  0  0  0  0  0  0  0  0  0  0  0
   -8.6639    3.0455  -10.5542 C   0  0  0  0  0  0  0  0  0  0  0  0
   -9.4099    2.0271   -8.2988 C   0  0  0  0  0  0  0  0  0  0  0  0
   -9.9547    1.0024   -8.6477 O   0  0  0  0  0  0  0  0  0  0  0  0
   -9.2968    2.4920   -7.0054 N   0  0  0  0  0  0  0  0  0  0  0  0
   -8.6378    3.7650   -6.9300 C   0  0  0  0  0  0  0  0  0  0  0  0
   -6.0688    5.3013  -15.5742 C   0  0  0  0  0  0  0  0  0  0  0  0
  1  2  1  0
  2  3  2  0
  3  4  1  0
  4  5  1  0
  5  6  1  0
  5  7  1  0
  5  8  1  0
  4  9  1  0
  9 10  2  0
 10 11  1  0
 11 12  1  0
 12 13  1  0
 13 14  1  0
 11 15  2  0
 15 16  1  0
 16 17  1  0
 17 18  2  0
 17 19  1  0
 19 20  1  0
 20 21  2  0
 21 22  1  0
 22 23  2  0
 23 24  1  0
 24 25  2  0
 24 26  1  0
 26 27  2  0
 26 28  1  0
 28 29  1  0
 16 30  2  0
 30  2  1  0
 30  9  1  0
 14 12  1  0
 25 20  1  0
 29 23  1  0
M  END
>  <name>  (563) 
P125278

>  <alias>  (563) 
None

>  <smina_score_min>  (563) 
-9.609

>  <exports>  (563) 
['/opt/xchem-fragalysis-2/maxwin/BulkDock/OUTPUTS/openbind_xx01zvns2b_c2_elabs_1LOUTNY.sdf', '/opt/xchem-fragalysis-2/maxwin/BulkDock/OUTPUTS/openbind_xx01zvns2b_c2_elabs_1LSYIIV.sdf']

>  <tags>  (563) 
syndirella_placed,openbind_xx01zvns2b_c2_elabs,openbind_xx01zvns2b_c2_elabs_scored_6.2plus,syndirella_product,openbind_xx01zvns2b_c2_elabs_scored,openbind_xx01zvns2b_c2_elabs_scored_top80percent,BulkDock Fragalysis export

>  <subsites>  (563) 
1 - Z4590/B/203/1

>  <smiles>  (563) 
Cc1nn(C(C)(C)C)c2nc(C3CC3)cc(C(=O)Nc3ccc4c(c3)C(=O)NC4)c12

>  <HIPPO Pose ID>  (563) 
125278

>  <energy_score>  (563) 
-47.597995

>  <inchikey>  (563) 
BKQZWAMLHRIYJL-UHFFFAOYSA-N

>  <gnina_score_min>  (563) 
6.242

>  <gnina_score>  (563) 
6.324

>  <ref_mols>  (563) 
Z3559a

>  <HIPPO Compound ID>  (563) 
178367

>  <distance_score>  (563) 
0.381511

>  <rmsd(smina/fragmenstein)>  (563) 
0.826

>  <ref_pdb>  (563) 
Z3559a

>  <inspiration_score>  (563) 
None

$$$$
P125283
     RDKit          3D

 30 34  0  0  0  0  0  0  0  0999 V2000
   -2.2570    6.5444  -19.6513 C   0  0  0  0  0  0  0  0  0  0  0  0
   -3.1609    5.3173  -19.6733 C   0  0  0  0  0  0  0  0  0  0  0  0
   -4.6474    5.5571  -19.3213 C   0  0  2  0  0  0  0  0  0  0  0  0
   -5.2271    6.8137  -19.9696 C   0  0  0  0  0  0  0  0  0  0  0  0
   -4.9256    5.5522  -17.8873 N   0  0  0  0  0  0  0  0  0  0  0  0
   -4.0619    6.1115  -17.0051 N   0  0  0  0  0  0  0  0  0  0  0  0
   -4.7000    6.0113  -15.8352 C   0  0  0  0  0  0  0  0  0  0  0  0
   -5.9650    5.4068  -15.9569 C   0  0  0  0  0  0  0  0  0  0  0  0
   -7.0498    5.0900  -15.1419 C   0  0  0  0  0  0  0  0  0  0  0  0
   -7.0334    5.4929  -13.7253 C   0  0  0  0  0  0  0  0  0  0  0  0
   -6.7074    6.5786  -13.4519 O   0  0  0  0  0  0  0  0  0  0  0  0
   -7.5034    4.3347  -12.8250 N   0  0  0  0  0  0  0  0  0  0  0  0
   -7.7527    4.2976  -11.4608 C   0  0  0  0  0  0  0  0  0  0  0  0
   -7.4958    5.4060  -10.6355 C   0  0  0  0  0  0  0  0  0  0  0  0
   -7.7747    5.3590   -9.2673 C   0  0  0  0  0  0  0  0  0  0  0  0
   -8.3152    4.1951   -8.7620 C   0  0  0  0  0  0  0  0  0  0  0  0
   -8.5587    3.0931   -9.5846 C   0  0  0  0  0  0  0  0  0  0  0  0
   -8.2809    3.1211  -10.9334 C   0  0  0  0  0  0  0  0  0  0  0  0
   -9.1502    1.9939   -8.7686 C   0  0  0  0  0  0  0  0  0  0  0  0
   -9.6454    2.7041   -7.5778 N   0  0  0  0  0  0  0  0  0  0  0  0
   -9.7884    1.8297   -6.4358 C   0  0  0  0  0  0  0  0  0  0  0  0
  -10.5684    2.5233   -5.3329 C   0  0  0  0  0  0  0  0  0  0  0  0
   -8.7547    3.8588   -7.3732 C   0  0  0  0  0  0  0  0  0  0  0  0
   -8.1772    4.5084  -15.7301 C   0  0  0  0  0  0  0  0  0  0  0  0
   -8.1972    4.2634  -17.1056 C   0  0  0  0  0  0  0  0  0  0  0  0
   -9.4739    3.7535  -17.7394 C   0  0  0  0  0  0  0  0  0  0  0  0
   -9.7309    3.9363  -19.2126 C   0  0  0  0  0  0  0  0  0  0  0  0
   -9.4348    2.5698  -18.6712 C   0  0  0  0  0  0  0  0  0  0  0  0
   -7.1392    4.5395  -17.9088 N   0  0  0  0  0  0  0  0  0  0  0  0
   -6.0836    5.1056  -17.2993 C   0  0  0  0  0  0  0  0  0  0  0  0
  1  2  1  0
  2  3  1  0
  3  4  1  1
  3  5  1  0
  5  6  1  0
  6  7  2  0
  7  8  1  0
  8  9  2  0
  9 10  1  0
 10 11  2  0
 10 12  1  0
 12 13  1  0
 13 14  2  0
 14 15  1  0
 15 16  2  0
 16 17  1  0
 17 18  2  0
 17 19  1  0
 19 20  1  0
 20 21  1  0
 21 22  1  0
 20 23  1  0
  9 24  1  0
 24 25  2  0
 25 26  1  0
 26 27  1  0
 27 28  1  0
 25 29  1  0
 29 30  2  0
 30  5  1  0
 30  8  1  0
 18 13  1  0
 28 26  1  0
 23 16  1  0
M  END
>  <name>  (564) 
P125283

>  <alias>  (564) 
None

>  <smina_score_min>  (564) 
-8.981

>  <exports>  (564) 
['/opt/xchem-fragalysis-2/maxwin/BulkDock/OUTPUTS/openbind_xx01zvns2b_c2_elabs_1LOUTNY.sdf', '/opt/xchem-fragalysis-2/maxwin/BulkDock/OUTPUTS/openbind_xx01zvns2b_c2_elabs_1LSYIIV.sdf']

>  <tags>  (564) 
syndirella_placed,openbind_xx01zvns2b_c2_elabs,openbind_xx01zvns2b_c2_elabs_scored_6.2plus,syndirella_product,openbind_xx01zvns2b_c2_elabs_scored,openbind_xx01zvns2b_c2_elabs_scored_top80percent,BulkDock Fragalysis export

>  <subsites>  (564) 
1 - Z4590/B/203/1

>  <smiles>  (564) 
CC[C@H](C)n1ncc2c(C(=O)Nc3ccc4c(c3)CN(CC)C4)cc(C3CC3)nc21

>  <HIPPO Pose ID>  (564) 
125283

>  <energy_score>  (564) 
-67.123902

>  <inchikey>  (564) 
ULQMXEMJXQTNOQ-HNNXBMFYSA-N

>  <gnina_score_min>  (564) 
6.248

>  <gnina_score>  (564) 
6.272

>  <ref_mols>  (564) 
Z3559a

>  <HIPPO Compound ID>  (564) 
178286

>  <distance_score>  (564) 
0.506971

>  <rmsd(smina/fragmenstein)>  (564) 
0.53

>  <ref_pdb>  (564) 
Z3559a

>  <inspiration_score>  (564) 
None

$$$$
P125285
     RDKit          3D

 30 34  0  0  0  0  0  0  0  0999 V2000
   -3.5132    6.1219  -14.6402 C   0  0  0  0  0  0  0  0  0  0  0  0
   -4.3473    5.7480  -15.8109 C   0  0  0  0  0  0  0  0  0  0  0  0
   -3.8146    5.8254  -17.0423 N   0  0  0  0  0  0  0  0  0  0  0  0
   -4.8142    5.4188  -17.8511 N   0  0  0  0  0  0  0  0  0  0  0  0
   -4.6452    5.4428  -19.2825 C   0  0  0  0  0  0  0  0  0  0  0  0
   -5.9449    5.0577  -17.1809 C   0  0  0  0  0  0  0  0  0  0  0  0
   -7.0638    4.5779  -17.7390 N   0  0  0  0  0  0  0  0  0  0  0  0
   -8.1033    4.3781  -16.8985 C   0  0  0  0  0  0  0  0  0  0  0  0
   -9.3988    3.8690  -17.5383 C   0  0  0  0  0  0  0  0  0  0  0  0
   -9.6998    4.1337  -18.9955 C   0  0  0  0  0  0  0  0  0  0  0  0
   -9.3439    2.7481  -18.5552 C   0  0  0  0  0  0  0  0  0  0  0  0
   -7.9902    4.6757  -15.5245 C   0  0  0  0  0  0  0  0  0  0  0  0
   -9.4015    4.7524  -14.5458 Cl  0  0  0  0  0  0  0  0  0  0  0  0
   -6.7616    5.0659  -14.9536 C   0  0  0  0  0  0  0  0  0  0  0  0
   -6.6196    5.3695  -13.4978 C   0  0  0  0  0  0  0  0  0  0  0  0
   -6.0918    6.3674  -13.1939 O   0  0  0  0  0  0  0  0  0  0  0  0
   -7.2889    4.2770  -12.6196 N   0  0  0  0  0  0  0  0  0  0  0  0
   -7.5211    4.2367  -11.2451 C   0  0  0  0  0  0  0  0  0  0  0  0
   -7.1175    5.2910  -10.4033 C   0  0  0  0  0  0  0  0  0  0  0  0
   -7.4025    5.2692   -9.0319 C   0  0  0  0  0  0  0  0  0  0  0  0
   -8.0961    4.1809   -8.5433 C   0  0  0  0  0  0  0  0  0  0  0  0
   -8.5133    3.1556   -9.3677 C   0  0  0  0  0  0  0  0  0  0  0  0
   -8.2397    3.1502  -10.7245 C   0  0  0  0  0  0  0  0  0  0  0  0
   -9.2996    2.2354   -8.5490 C   0  0  0  0  0  0  0  0  0  0  0  0
   -9.9210    1.2946   -8.9993 O   0  0  0  0  0  0  0  0  0  0  0  0
   -9.2543    2.7139   -7.2681 N   0  0  0  0  0  0  0  0  0  0  0  0
  -10.0050    2.1388   -6.1821 C   0  0  0  0  0  0  0  0  0  0  0  0
   -8.5722    3.8932   -7.1913 C   0  0  0  0  0  0  0  0  0  0  0  0
   -8.3944    4.6349   -6.2411 O   0  0  0  0  0  0  0  0  0  0  0  0
   -5.7000    5.3016  -15.8394 C   0  0  0  0  0  0  0  0  0  0  0  0
  1  2  1  0
  2  3  2  0
  3  4  1  0
  4  5  1  0
  4  6  1  0
  6  7  2  0
  7  8  1  0
  8  9  1  0
  9 10  1  0
 10 11  1  0
  8 12  2  0
 12 13  1  0
 12 14  1  0
 14 15  1  0
 15 16  2  0
 15 17  1  0
 17 18  1  0
 18 19  2  0
 19 20  1  0
 20 21  2  0
 21 22  1  0
 22 23  2  0
 22 24  1  0
 24 25  2  0
 24 26  1  0
 26 27  1  0
 26 28  1  0
 28 29  2  0
 14 30  2  0
 30  2  1  0
 30  6  1  0
 11  9  1  0
 23 18  1  0
 28 21  1  0
M  END
>  <name>  (565) 
P125285

>  <alias>  (565) 
None

>  <smina_score_min>  (565) 
-8.614

>  <exports>  (565) 
['/opt/xchem-fragalysis-2/maxwin/BulkDock/OUTPUTS/openbind_xx01zvns2b_c2_elabs_1LOUTNY.sdf', '/opt/xchem-fragalysis-2/maxwin/BulkDock/OUTPUTS/openbind_xx01zvns2b_c2_elabs_1LSYIIV.sdf']

>  <tags>  (565) 
syndirella_placed,openbind_xx01zvns2b_c2_elabs,openbind_xx01zvns2b_c2_elabs_scored_6.2plus,syndirella_product,openbind_xx01zvns2b_c2_elabs_scored,openbind_xx01zvns2b_c2_elabs_scored_top80percent,BulkDock Fragalysis export

>  <subsites>  (565) 
1 - Z4590/B/203/1

>  <smiles>  (565) 
Cc1nn(C)c2nc(C3CC3)c(Cl)c(C(=O)Nc3ccc4c(c3)C(=O)N(C)C4=O)c12

>  <HIPPO Pose ID>  (565) 
125285

>  <energy_score>  (565) 
-24.212004

>  <inchikey>  (565) 
JZUVUAZGCBQGAI-UHFFFAOYSA-N

>  <gnina_score_min>  (565) 
6.209

>  <gnina_score>  (565) 
6.312

>  <ref_mols>  (565) 
Z3559a

>  <HIPPO Compound ID>  (565) 
178262

>  <distance_score>  (565) 
0.592689

>  <rmsd(smina/fragmenstein)>  (565) 
0.556

>  <ref_pdb>  (565) 
Z3559a

>  <inspiration_score>  (565) 
None

$$$$
P125286
     RDKit          3D

 30 34  0  0  0  0  0  0  0  0999 V2000
   -3.9759    6.1982  -14.5236 C   0  0  0  0  0  0  0  0  0  0  0  0
   -4.7225    5.8536  -15.7600 C   0  0  0  0  0  0  0  0  0  0  0  0
   -4.1643    6.0998  -16.9561 N   0  0  0  0  0  0  0  0  0  0  0  0
   -5.0996    5.6981  -17.8463 N   0  0  0  0  0  0  0  0  0  0  0  0
   -5.0522    6.2064  -19.1988 C   0  0  0  0  0  0  0  0  0  0  0  0
   -5.0517    5.1697  -20.2878 C   0  0  0  0  0  0  0  0  0  0  0  0
   -3.8495    4.5361  -20.3130 F   0  0  0  0  0  0  0  0  0  0  0  0
   -5.1311    5.8106  -21.4891 F   0  0  0  0  0  0  0  0  0  0  0  0
   -6.1937    5.1321  -17.2492 C   0  0  0  0  0  0  0  0  0  0  0  0
   -7.2617    4.6282  -17.8815 N   0  0  0  0  0  0  0  0  0  0  0  0
   -8.2862    4.2521  -17.0776 C   0  0  0  0  0  0  0  0  0  0  0  0
   -9.5572    3.7646  -17.7356 C   0  0  0  0  0  0  0  0  0  0  0  0
   -9.5101    2.5674  -18.6508 C   0  0  0  0  0  0  0  0  0  0  0  0
   -9.7762    3.9292  -19.2178 C   0  0  0  0  0  0  0  0  0  0  0  0
   -8.2421    4.3922  -15.6859 C   0  0  0  0  0  0  0  0  0  0  0  0
   -7.1084    4.9347  -15.0675 C   0  0  0  0  0  0  0  0  0  0  0  0
   -7.1488    5.3546  -13.6451 C   0  0  0  0  0  0  0  0  0  0  0  0
   -6.7819    6.4364  -13.4008 O   0  0  0  0  0  0  0  0  0  0  0  0
   -7.7625    4.2722  -12.7255 N   0  0  0  0  0  0  0  0  0  0  0  0
   -7.9582    4.2614  -11.3424 C   0  0  0  0  0  0  0  0  0  0  0  0
   -7.7184    5.4175  -10.5796 C   0  0  0  0  0  0  0  0  0  0  0  0
   -7.9214    5.4250   -9.1961 C   0  0  0  0  0  0  0  0  0  0  0  0
   -8.3624    4.2625   -8.5939 C   0  0  0  0  0  0  0  0  0  0  0  0
   -8.6034    3.1140   -9.3424 C   0  0  0  0  0  0  0  0  0  0  0  0
   -8.4110    3.0945  -10.7185 C   0  0  0  0  0  0  0  0  0  0  0  0
   -9.0929    2.0270   -8.4357 C   0  0  0  0  0  0  0  0  0  0  0  0
   -8.9729    2.5728   -7.0665 N   0  0  0  0  0  0  0  0  0  0  0  0
  -10.0878    2.2420   -6.2035 C   0  0  0  0  0  0  0  0  0  0  0  0
   -8.6813    4.0080   -7.1563 C   0  0  0  0  0  0  0  0  0  0  0  0
   -6.0230    5.2930  -15.8843 C   0  0  0  0  0  0  0  0  0  0  0  0
  1  2  1  0
  2  3  2  0
  3  4  1  0
  4  5  1  0
  5  6  1  0
  6  7  1  0
  6  8  1  0
  4  9  1  0
  9 10  2  0
 10 11  1  0
 11 12  1  0
 12 13  1  0
 13 14  1  0
 11 15  2  0
 15 16  1  0
 16 17  1  0
 17 18  2  0
 17 19  1  0
 19 20  1  0
 20 21  2  0
 21 22  1  0
 22 23  2  0
 23 24  1  0
 24 25  2  0
 24 26  1  0
 26 27  1  0
 27 28  1  0
 27 29  1  0
 16 30  2  0
 30  2  1  0
 30  9  1  0
 14 12  1  0
 25 20  1  0
 29 23  1  0
M  END
>  <name>  (566) 
P125286

>  <alias>  (566) 
None

>  <smina_score_min>  (566) 
-9.122

>  <exports>  (566) 
['/opt/xchem-fragalysis-2/maxwin/BulkDock/OUTPUTS/openbind_xx01zvns2b_c2_elabs_1LOUTNY.sdf', '/opt/xchem-fragalysis-2/maxwin/BulkDock/OUTPUTS/openbind_xx01zvns2b_c2_elabs_1LSYIIV.sdf']

>  <tags>  (566) 
syndirella_placed,openbind_xx01zvns2b_c2_elabs,openbind_xx01zvns2b_c2_elabs_scored_6.2plus,syndirella_product,openbind_xx01zvns2b_c2_elabs_scored,openbind_xx01zvns2b_c2_elabs_scored_top80percent,BulkDock Fragalysis export

>  <subsites>  (566) 
1 - Z4590/B/203/1

>  <smiles>  (566) 
Cc1nn(CC(F)F)c2nc(C3CC3)cc(C(=O)Nc3ccc4c(c3)CN(C)C4)c12

>  <HIPPO Pose ID>  (566) 
125286

>  <energy_score>  (566) 
-39.044094

>  <inchikey>  (566) 
GBZNISUNYOPSHZ-UHFFFAOYSA-N

>  <gnina_score_min>  (566) 
6.23

>  <gnina_score>  (566) 
6.243

>  <ref_mols>  (566) 
Z3559a

>  <HIPPO Compound ID>  (566) 
178280

>  <distance_score>  (566) 
0.385772

>  <rmsd(smina/fragmenstein)>  (566) 
1.118

>  <ref_pdb>  (566) 
Z3559a

>  <inspiration_score>  (566) 
None

$$$$
P125292
     RDKit          3D

 30 34  0  0  0  0  0  0  0  0999 V2000
   -4.2326    6.6621  -14.2033 C   0  0  0  0  0  0  0  0  0  0  0  0
   -4.7728    6.1143  -15.4733 C   0  0  0  0  0  0  0  0  0  0  0  0
   -4.0219    6.1662  -16.5815 N   0  0  0  0  0  0  0  0  0  0  0  0
   -4.8138    5.6303  -17.5435 N   0  0  0  0  0  0  0  0  0  0  0  0
   -4.2793    5.5748  -18.8890 C   0  0  0  0  0  0  0  0  0  0  0  0
   -5.2727    5.4429  -20.0268 C   0  0  0  0  0  0  0  0  0  0  0  0
   -6.0799    6.6131  -20.1186 O   0  0  0  0  0  0  0  0  0  0  0  0
   -5.9974    5.1474  -17.0525 C   0  0  0  0  0  0  0  0  0  0  0  0
   -6.9445    4.4735  -17.7235 N   0  0  0  0  0  0  0  0  0  0  0  0
   -8.0394    4.1235  -17.0119 C   0  0  0  0  0  0  0  0  0  0  0  0
   -9.0665    3.2571  -17.6926 C   0  0  0  0  0  0  0  0  0  0  0  0
   -9.0626    3.1148  -19.1914 C   0  0  0  0  0  0  0  0  0  0  0  0
  -10.1907    3.8323  -18.5161 C   0  0  0  0  0  0  0  0  0  0  0  0
   -8.2041    4.4643  -15.6686 C   0  0  0  0  0  0  0  0  0  0  0  0
   -7.1873    5.1542  -15.0023 C   0  0  0  0  0  0  0  0  0  0  0  0
   -7.3406    5.5802  -13.5983 C   0  0  0  0  0  0  0  0  0  0  0  0
   -7.1347    6.6986  -13.3362 O   0  0  0  0  0  0  0  0  0  0  0  0
   -7.6839    4.3840  -12.6829 N   0  0  0  0  0  0  0  0  0  0  0  0
   -7.9300    4.3347  -11.3132 C   0  0  0  0  0  0  0  0  0  0  0  0
   -7.7725    5.4881  -10.5199 C   0  0  0  0  0  0  0  0  0  0  0  0
   -8.0095    5.4514   -9.1454 C   0  0  0  0  0  0  0  0  0  0  0  0
   -8.4138    4.2482   -8.6066 C   0  0  0  0  0  0  0  0  0  0  0  0
   -8.5864    3.0988   -9.3754 C   0  0  0  0  0  0  0  0  0  0  0  0
   -8.3320    3.1221  -10.7376 C   0  0  0  0  0  0  0  0  0  0  0  0
   -9.1040    1.9932   -8.5162 C   0  0  0  0  0  0  0  0  0  0  0  0
   -9.2336    2.6389   -7.2199 N   0  0  0  0  0  0  0  0  0  0  0  0
   -9.9779    2.0359   -6.1464 C   0  0  0  0  0  0  0  0  0  0  0  0
   -8.8384    3.9598   -7.2327 C   0  0  0  0  0  0  0  0  0  0  0  0
   -8.8825    4.7840   -6.3377 O   0  0  0  0  0  0  0  0  0  0  0  0
   -6.0265    5.4925  -15.7118 C   0  0  0  0  0  0  0  0  0  0  0  0
  1  2  1  0
  2  3  2  0
  3  4  1  0
  4  5  1  0
  5  6  1  0
  6  7  1  0
  4  8  1  0
  8  9  2  0
  9 10  1  0
 10 11  1  0
 11 12  1  0
 12 13  1  0
 10 14  2  0
 14 15  1  0
 15 16  1  0
 16 17  2  0
 16 18  1  0
 18 19  1  0
 19 20  2  0
 20 21  1  0
 21 22  2  0
 22 23  1  0
 23 24  2  0
 23 25  1  0
 25 26  1  0
 26 27  1  0
 26 28  1  0
 28 29  2  0
 15 30  2  0
 30  2  1  0
 30  8  1  0
 13 11  1  0
 24 19  1  0
 28 22  1  0
M  END
>  <name>  (567) 
P125292

>  <alias>  (567) 
None

>  <smina_score_min>  (567) 
-8.949

>  <exports>  (567) 
['/opt/xchem-fragalysis-2/maxwin/BulkDock/OUTPUTS/openbind_xx01zvns2b_c2_elabs_1LOUTNY.sdf', '/opt/xchem-fragalysis-2/maxwin/BulkDock/OUTPUTS/openbind_xx01zvns2b_c2_elabs_1LSYIIV.sdf']

>  <tags>  (567) 
syndirella_placed,openbind_xx01zvns2b_c2_elabs,openbind_xx01zvns2b_c2_elabs_scored_6.2plus,syndirella_product,openbind_xx01zvns2b_c2_elabs_scored,openbind_xx01zvns2b_c2_elabs_scored_top80percent,BulkDock Fragalysis export

>  <subsites>  (567) 
1 - Z4590/B/203/1

>  <smiles>  (567) 
Cc1nn(CCO)c2nc(C3CC3)cc(C(=O)Nc3ccc4c(c3)CN(C)C4=O)c12

>  <HIPPO Pose ID>  (567) 
125292

>  <energy_score>  (567) 
-40.940794

>  <inchikey>  (567) 
VPDAZEDKJHNMLO-UHFFFAOYSA-N

>  <gnina_score_min>  (567) 
6.228

>  <gnina_score>  (567) 
6.135

>  <ref_mols>  (567) 
Z3559a

>  <HIPPO Compound ID>  (567) 
178450

>  <distance_score>  (567) 
0.544543

>  <rmsd(smina/fragmenstein)>  (567) 
0.615

>  <ref_pdb>  (567) 
Z3559a

>  <inspiration_score>  (567) 
None

$$$$
P125295
     RDKit          3D

 30 35  0  0  0  0  0  0  0  0999 V2000
   -9.5409    1.8147   -6.3376 C   0  0  0  0  0  0  0  0  0  0  0  0
   -9.6111    2.6948   -7.4799 N   0  0  0  0  0  0  0  0  0  0  0  0
   -8.7423    3.8805   -7.3369 C   0  0  0  0  0  0  0  0  0  0  0  0
   -8.3651    4.2156   -8.7435 C   0  0  0  0  0  0  0  0  0  0  0  0
   -7.8380    5.3781   -9.2677 C   0  0  0  0  0  0  0  0  0  0  0  0
   -7.5864    5.4198  -10.6417 C   0  0  0  0  0  0  0  0  0  0  0  0
   -7.8543    4.3071  -11.4572 C   0  0  0  0  0  0  0  0  0  0  0  0
   -7.6142    4.3361  -12.8244 N   0  0  0  0  0  0  0  0  0  0  0  0
   -7.0306    5.4514  -13.7157 C   0  0  0  0  0  0  0  0  0  0  0  0
   -6.5880    6.4927  -13.4317 O   0  0  0  0  0  0  0  0  0  0  0  0
   -7.0668    5.0617  -15.1397 C   0  0  0  0  0  0  0  0  0  0  0  0
   -8.2059    4.4968  -15.7251 C   0  0  0  0  0  0  0  0  0  0  0  0
   -8.2389    4.2562  -17.1016 C   0  0  0  0  0  0  0  0  0  0  0  0
   -9.5183    3.7559  -17.7347 C   0  0  0  0  0  0  0  0  0  0  0  0
   -9.7691    3.9344  -19.2099 C   0  0  0  0  0  0  0  0  0  0  0  0
   -9.4829    2.5682  -18.6623 C   0  0  0  0  0  0  0  0  0  0  0  0
   -7.1860    4.5246  -17.9105 N   0  0  0  0  0  0  0  0  0  0  0  0
   -6.1203    5.0746  -17.3084 C   0  0  0  0  0  0  0  0  0  0  0  0
   -5.9844    5.3676  -15.9659 C   0  0  0  0  0  0  0  0  0  0  0  0
   -4.7051    5.9468  -15.8581 C   0  0  0  0  0  0  0  0  0  0  0  0
   -4.0730    6.0292  -17.0337 N   0  0  0  0  0  0  0  0  0  0  0  0
   -4.9630    5.4994  -17.9099 N   0  0  0  0  0  0  0  0  0  0  0  0
   -4.7041    5.4782  -19.3414 C   0  0  0  0  0  0  0  0  0  0  0  0
   -3.2248    5.3618  -19.7252 C   0  0  0  0  0  0  0  0  0  0  0  0
   -2.7125    6.7946  -19.8835 C   0  0  0  0  0  0  0  0  0  0  0  0
   -3.9402    7.7020  -19.8795 C   0  0  0  0  0  0  0  0  0  0  0  0
   -5.1369    6.7726  -20.0286 C   0  0  0  0  0  0  0  0  0  0  0  0
   -8.3772    3.1351  -10.9117 C   0  0  0  0  0  0  0  0  0  0  0  0
   -8.6286    3.1121   -9.5552 C   0  0  0  0  0  0  0  0  0  0  0  0
   -9.1804    2.0078   -8.7170 C   0  0  0  0  0  0  0  0  0  0  0  0
  1  2  1  0
  2  3  1  0
  3  4  1  0
  4  5  2  0
  5  6  1  0
  6  7  2  0
  7  8  1  0
  8  9  1  0
  9 10  2  0
  9 11  1  0
 11 12  2  0
 12 13  1  0
 13 14  1  0
 14 15  1  0
 15 16  1  0
 13 17  2  0
 17 18  1  0
 18 19  2  0
 19 20  1  0
 20 21  2  0
 21 22  1  0
 22 23  1  0
 23 24  1  0
 24 25  1  0
 25 26  1  0
 26 27  1  0
  7 28  1  0
 28 29  2  0
 29 30  1  0
 30  2  1  0
 29  4  1  0
 19 11  1  0
 27 23  1  0
 16 14  1  0
 22 18  1  0
M  END
>  <name>  (568) 
P125295

>  <alias>  (568) 
None

>  <smina_score_min>  (568) 
-9.185

>  <exports>  (568) 
['/opt/xchem-fragalysis-2/maxwin/BulkDock/OUTPUTS/openbind_xx01zvns2b_c2_elabs_1LOUTNY.sdf', '/opt/xchem-fragalysis-2/maxwin/BulkDock/OUTPUTS/openbind_xx01zvns2b_c2_elabs_1LSYIIV.sdf']

>  <tags>  (568) 
syndirella_placed,openbind_xx01zvns2b_c2_elabs,openbind_xx01zvns2b_c2_elabs_scored_6.2plus,syndirella_product,openbind_xx01zvns2b_c2_elabs_scored,openbind_xx01zvns2b_c2_elabs_scored_top80percent,BulkDock Fragalysis export

>  <subsites>  (568) 
1 - Z4590/B/203/1

>  <smiles>  (568) 
CN1Cc2ccc(NC(=O)c3cc(C4CC4)nc4c3cnn4C3CCCC3)cc2C1

>  <HIPPO Pose ID>  (568) 
125295

>  <energy_score>  (568) 
-43.925077

>  <inchikey>  (568) 
NLEOJEYYQGFWNM-UHFFFAOYSA-N

>  <gnina_score_min>  (568) 
6.41

>  <gnina_score>  (568) 
6.376

>  <ref_mols>  (568) 
Z3559a

>  <HIPPO Compound ID>  (568) 
178454

>  <distance_score>  (568) 
0.457111

>  <rmsd(smina/fragmenstein)>  (568) 
0.172

>  <ref_pdb>  (568) 
Z3559a

>  <inspiration_score>  (568) 
None

$$$$
P125296
     RDKit          3D

 30 35  0  0  0  0  0  0  0  0999 V2000
   -8.2191    4.3836   -6.0689 O   0  0  0  0  0  0  0  0  0  0  0  0
   -8.5115    3.6991   -7.0314 C   0  0  0  0  0  0  0  0  0  0  0  0
   -9.0392    2.4252   -7.0288 N   0  0  0  0  0  0  0  0  0  0  0  0
   -9.0376    1.8320   -8.3504 C   0  0  0  0  0  0  0  0  0  0  0  0
   -8.6460    2.9739   -9.2273 C   0  0  0  0  0  0  0  0  0  0  0  0
   -8.5324    3.0404  -10.6082 C   0  0  0  0  0  0  0  0  0  0  0  0
   -8.0880    4.2398  -11.1797 C   0  0  0  0  0  0  0  0  0  0  0  0
   -7.9337    4.3151  -12.5641 N   0  0  0  0  0  0  0  0  0  0  0  0
   -7.3061    5.4196  -13.4461 C   0  0  0  0  0  0  0  0  0  0  0  0
   -6.8901    6.4725  -13.1589 O   0  0  0  0  0  0  0  0  0  0  0  0
   -7.2432    5.0284  -14.8728 C   0  0  0  0  0  0  0  0  0  0  0  0
   -8.3321    4.4714  -15.5490 C   0  0  0  0  0  0  0  0  0  0  0  0
   -8.2683    4.2665  -16.9322 C   0  0  0  0  0  0  0  0  0  0  0  0
   -9.5038    3.7830  -17.6663 C   0  0  0  0  0  0  0  0  0  0  0  0
   -9.4115    2.6205  -18.6221 C   0  0  0  0  0  0  0  0  0  0  0  0
   -9.6582    4.0006  -19.1506 C   0  0  0  0  0  0  0  0  0  0  0  0
   -7.1636    4.5627  -17.6609 N   0  0  0  0  0  0  0  0  0  0  0  0
   -6.1382    5.0980  -16.9784 C   0  0  0  0  0  0  0  0  0  0  0  0
   -6.1037    5.3505  -15.6186 C   0  0  0  0  0  0  0  0  0  0  0  0
   -4.8333    5.9158  -15.3954 C   0  0  0  0  0  0  0  0  0  0  0  0
   -4.1048    6.0109  -16.5109 N   0  0  0  0  0  0  0  0  0  0  0  0
   -4.9357    5.5369  -17.4762 N   0  0  0  0  0  0  0  0  0  0  0  0
   -4.4455    5.5120  -18.8370 C   0  0  0  0  0  0  0  0  0  0  0  0
   -5.4584    5.2648  -19.9502 C   0  0  0  0  0  0  0  0  0  0  0  0
   -4.6795    5.6210  -21.2068 C   0  0  0  0  0  0  0  0  0  0  0  0
   -3.8406    6.8297  -20.8095 C   0  0  0  0  0  0  0  0  0  0  0  0
   -3.8058    6.8384  -19.2808 C   0  0  0  0  0  0  0  0  0  0  0  0
   -7.7819    5.3479  -10.3648 C   0  0  0  0  0  0  0  0  0  0  0  0
   -7.8988    5.2729   -8.9740 C   0  0  0  0  0  0  0  0  0  0  0  0
   -8.3278    4.0767   -8.4385 C   0  0  0  0  0  0  0  0  0  0  0  0
  1  2  2  0
  2  3  1  0
  3  4  1  0
  4  5  1  0
  5  6  2  0
  6  7  1  0
  7  8  1  0
  8  9  1  0
  9 10  2  0
  9 11  1  0
 11 12  2  0
 12 13  1  0
 13 14  1  0
 14 15  1  0
 15 16  1  0
 13 17  2  0
 17 18  1  0
 18 19  2  0
 19 20  1  0
 20 21  2  0
 21 22  1  0
 22 23  1  0
 23 24  1  0
 24 25  1  0
 25 26  1  0
 26 27  1  0
  7 28  2  0
 28 29  1  0
 29 30  2  0
 30  2  1  0
 30  5  1  0
 19 11  1  0
 27 23  1  0
 16 14  1  0
 22 18  1  0
M  END
>  <name>  (569) 
P125296

>  <alias>  (569) 
None

>  <smina_score_min>  (569) 
-9.606

>  <exports>  (569) 
['/opt/xchem-fragalysis-2/maxwin/BulkDock/OUTPUTS/openbind_xx01zvns2b_c2_elabs_1LOUTNY.sdf', '/opt/xchem-fragalysis-2/maxwin/BulkDock/OUTPUTS/openbind_xx01zvns2b_c2_elabs_1LSYIIV.sdf']

>  <tags>  (569) 
syndirella_placed,openbind_xx01zvns2b_c2_elabs,openbind_xx01zvns2b_c2_elabs_scored_6.2plus,syndirella_product,openbind_xx01zvns2b_c2_elabs_scored,openbind_xx01zvns2b_c2_elabs_scored_top80percent,BulkDock Fragalysis export

>  <subsites>  (569) 
1 - Z4590/B/203/1

>  <smiles>  (569) 
O=C1NCc2cc(NC(=O)c3cc(C4CC4)nc4c3cnn4C3CCCC3)ccc21

>  <HIPPO Pose ID>  (569) 
125296

>  <energy_score>  (569) 
-27.003963

>  <inchikey>  (569) 
CXVHRKUMFCCHAV-UHFFFAOYSA-N

>  <gnina_score_min>  (569) 
6.375

>  <gnina_score>  (569) 
6.314

>  <ref_mols>  (569) 
Z3559a

>  <HIPPO Compound ID>  (569) 
178453

>  <distance_score>  (569) 
0.361893

>  <rmsd(smina/fragmenstein)>  (569) 
1.413

>  <ref_pdb>  (569) 
Z3559a

>  <inspiration_score>  (569) 
None

$$$$
P125298
     RDKit          3D

 30 35  0  0  0  0  0  0  0  0999 V2000
  -10.5560    2.5145   -5.3665 C   0  0  0  0  0  0  0  0  0  0  0  0
   -9.7554    1.8289   -6.4612 C   0  0  0  0  0  0  0  0  0  0  0  0
   -9.6225    2.6949   -7.6121 N   0  0  0  0  0  0  0  0  0  0  0  0
   -8.7747    3.8811   -7.4029 C   0  0  0  0  0  0  0  0  0  0  0  0
   -8.3380    4.2282   -8.7898 C   0  0  0  0  0  0  0  0  0  0  0  0
   -7.8609    5.4172   -9.3019 C   0  0  0  0  0  0  0  0  0  0  0  0
   -7.5717    5.4685  -10.6681 C   0  0  0  0  0  0  0  0  0  0  0  0
   -7.7362    4.3343  -11.4814 C   0  0  0  0  0  0  0  0  0  0  0  0
   -7.4746    4.3721  -12.8436 N   0  0  0  0  0  0  0  0  0  0  0  0
   -7.0690    5.5482  -13.7528 C   0  0  0  0  0  0  0  0  0  0  0  0
   -6.8156    6.6552  -13.4889 O   0  0  0  0  0  0  0  0  0  0  0  0
   -7.0559    5.1174  -15.1603 C   0  0  0  0  0  0  0  0  0  0  0  0
   -8.1999    4.5375  -15.7248 C   0  0  0  0  0  0  0  0  0  0  0  0
   -8.2406    4.2620  -17.0919 C   0  0  0  0  0  0  0  0  0  0  0  0
   -9.5222    3.7521  -17.7113 C   0  0  0  0  0  0  0  0  0  0  0  0
   -9.4860    2.5784  -18.6572 C   0  0  0  0  0  0  0  0  0  0  0  0
   -9.7984    3.9485  -19.1802 C   0  0  0  0  0  0  0  0  0  0  0  0
   -7.1903    4.5088  -17.9076 N   0  0  0  0  0  0  0  0  0  0  0  0
   -6.1182    5.0642  -17.3216 C   0  0  0  0  0  0  0  0  0  0  0  0
   -5.9635    5.3881  -15.9857 C   0  0  0  0  0  0  0  0  0  0  0  0
   -4.6629    5.9360  -15.9152 C   0  0  0  0  0  0  0  0  0  0  0  0
   -3.9796    6.4679  -14.6254 C   0  0  0  0  0  0  0  0  0  0  0  0
   -3.6760    5.5274  -13.4875 C   0  0  0  0  0  0  0  0  0  0  0  0
   -2.5570    6.0611  -14.3304 C   0  0  0  0  0  0  0  0  0  0  0  0
   -4.0542    5.9963  -17.1069 N   0  0  0  0  0  0  0  0  0  0  0  0
   -4.9716    5.4651  -17.9450 N   0  0  0  0  0  0  0  0  0  0  0  0
   -4.7195    5.4341  -19.3627 C   0  0  0  0  0  0  0  0  0  0  0  0
   -8.1965    3.1320  -10.9450 C   0  0  0  0  0  0  0  0  0  0  0  0
   -8.5091    3.1057   -9.6029 C   0  0  0  0  0  0  0  0  0  0  0  0
   -9.0772    1.9918   -8.7873 C   0  0  0  0  0  0  0  0  0  0  0  0
  1  2  1  0
  2  3  1  0
  3  4  1  0
  4  5  1  0
  5  6  2  0
  6  7  1  0
  7  8  2  0
  8  9  1  0
  9 10  1  0
 10 11  2  0
 10 12  1  0
 12 13  2  0
 13 14  1  0
 14 15  1  0
 15 16  1  0
 16 17  1  0
 14 18  2  0
 18 19  1  0
 19 20  2  0
 20 21  1  0
 21 22  1  0
 22 23  1  0
 23 24  1  0
 21 25  2  0
 25 26  1  0
 26 27  1  0
  8 28  1  0
 28 29  2  0
 29 30  1  0
 30  3  1  0
 29  5  1  0
 20 12  1  0
 24 22  1  0
 17 15  1  0
 26 19  1  0
M  END
>  <name>  (570) 
P125298

>  <alias>  (570) 
None

>  <smina_score_min>  (570) 
-8.825

>  <exports>  (570) 
['/opt/xchem-fragalysis-2/maxwin/BulkDock/OUTPUTS/openbind_xx01zvns2b_c2_elabs_1LOUTNY.sdf', '/opt/xchem-fragalysis-2/maxwin/BulkDock/OUTPUTS/openbind_xx01zvns2b_c2_elabs_1LSYIIV.sdf']

>  <tags>  (570) 
syndirella_placed,openbind_xx01zvns2b_c2_elabs,openbind_xx01zvns2b_c2_elabs_scored_6.2plus,syndirella_product,openbind_xx01zvns2b_c2_elabs_scored,openbind_xx01zvns2b_c2_elabs_scored_top80percent,BulkDock Fragalysis export

>  <subsites>  (570) 
1 - Z4590/B/203/1

>  <smiles>  (570) 
CCN1Cc2ccc(NC(=O)c3cc(C4CC4)nc4c3c(C3CC3)nn4C)cc2C1

>  <HIPPO Pose ID>  (570) 
125298

>  <energy_score>  (570) 
-34.78386

>  <inchikey>  (570) 
WIGLCIRMXDAFMN-UHFFFAOYSA-N

>  <gnina_score_min>  (570) 
6.385

>  <gnina_score>  (570) 
6.458

>  <ref_mols>  (570) 
Z3559a

>  <HIPPO Compound ID>  (570) 
178500

>  <distance_score>  (570) 
0.521469

>  <rmsd(smina/fragmenstein)>  (570) 
0.4

>  <ref_pdb>  (570) 
Z3559a

>  <inspiration_score>  (570) 
None

$$$$
P125300
     RDKit          3D

 30 35  0  0  0  0  0  0  0  0999 V2000
   -4.7137    5.4407  -18.9629 C   0  0  0  0  0  0  0  0  0  0  0  0
   -5.0525    5.4213  -17.5620 N   0  0  0  0  0  0  0  0  0  0  0  0
   -4.1816    5.9028  -16.6473 N   0  0  0  0  0  0  0  0  0  0  0  0
   -4.8683    5.8049  -15.4996 C   0  0  0  0  0  0  0  0  0  0  0  0
   -4.2619    6.2637  -14.1444 C   0  0  0  0  0  0  0  0  0  0  0  0
   -4.0665    5.2653  -13.0317 C   0  0  0  0  0  0  0  0  0  0  0  0
   -2.8758    5.8040  -13.7668 C   0  0  0  0  0  0  0  0  0  0  0  0
   -6.1697    5.2744  -15.6692 C   0  0  0  0  0  0  0  0  0  0  0  0
   -7.3190    4.9857  -14.9190 C   0  0  0  0  0  0  0  0  0  0  0  0
   -7.4226    5.4220  -13.5120 C   0  0  0  0  0  0  0  0  0  0  0  0
   -7.1707    6.5381  -13.2766 O   0  0  0  0  0  0  0  0  0  0  0  0
   -7.8840    4.2776  -12.5752 N   0  0  0  0  0  0  0  0  0  0  0  0
   -8.0349    4.2466  -11.1806 C   0  0  0  0  0  0  0  0  0  0  0  0
   -8.6188    3.1082  -10.6081 C   0  0  0  0  0  0  0  0  0  0  0  0
   -8.7727    3.0820   -9.2290 C   0  0  0  0  0  0  0  0  0  0  0  0
   -8.3441    4.1163   -8.3987 C   0  0  0  0  0  0  0  0  0  0  0  0
   -7.7627    5.2404   -8.9453 C   0  0  0  0  0  0  0  0  0  0  0  0
   -7.6150    5.2982  -10.3353 C   0  0  0  0  0  0  0  0  0  0  0  0
   -7.0074    6.3878  -10.8204 F   0  0  0  0  0  0  0  0  0  0  0  0
   -8.6180    3.7792   -6.9732 C   0  0  0  0  0  0  0  0  0  0  0  0
   -9.2981    2.5190   -7.0719 N   0  0  0  0  0  0  0  0  0  0  0  0
   -9.4016    2.0692   -8.3712 C   0  0  0  0  0  0  0  0  0  0  0  0
   -9.9551    1.0567   -8.7402 O   0  0  0  0  0  0  0  0  0  0  0  0
   -8.4256    4.4444  -15.5840 C   0  0  0  0  0  0  0  0  0  0  0  0
   -8.3776    4.2279  -16.9647 C   0  0  0  0  0  0  0  0  0  0  0  0
   -9.6165    3.7679  -17.7006 C   0  0  0  0  0  0  0  0  0  0  0  0
   -9.7360    3.9446  -19.1943 C   0  0  0  0  0  0  0  0  0  0  0  0
   -9.5412    2.5744  -18.6194 C   0  0  0  0  0  0  0  0  0  0  0  0
   -7.2750    4.4948  -17.7007 N   0  0  0  0  0  0  0  0  0  0  0  0
   -6.2386    5.0092  -17.0252 C   0  0  0  0  0  0  0  0  0  0  0  0
  1  2  1  0
  2  3  1  0
  3  4  2  0
  4  5  1  0
  5  6  1  0
  6  7  1  0
  4  8  1  0
  8  9  2  0
  9 10  1  0
 10 11  2  0
 10 12  1  0
 12 13  1  0
 13 14  2  0
 14 15  1  0
 15 16  2  0
 16 17  1  0
 17 18  2  0
 18 19  1  0
 16 20  1  0
 20 21  1  0
 21 22  1  0
 22 23  2  0
  9 24  1  0
 24 25  2  0
 25 26  1  0
 26 27  1  0
 27 28  1  0
 25 29  1  0
 29 30  2  0
 30  2  1  0
  7  5  1  0
 30  8  1  0
 18 13  1  0
 28 26  1  0
 22 15  1  0
M  END
>  <name>  (571) 
P125300

>  <alias>  (571) 
None

>  <smina_score_min>  (571) 
-8.95

>  <exports>  (571) 
['/opt/xchem-fragalysis-2/maxwin/BulkDock/OUTPUTS/openbind_xx01zvns2b_c2_elabs_1LOUTNY.sdf', '/opt/xchem-fragalysis-2/maxwin/BulkDock/OUTPUTS/openbind_xx01zvns2b_c2_elabs_1LSYIIV.sdf']

>  <tags>  (571) 
syndirella_placed,openbind_xx01zvns2b_c2_elabs,openbind_xx01zvns2b_c2_elabs_scored_6.2plus,syndirella_product,openbind_xx01zvns2b_c2_elabs_scored,openbind_xx01zvns2b_c2_elabs_scored_top80percent,BulkDock Fragalysis export

>  <subsites>  (571) 
1 - Z4590/B/203/1

>  <smiles>  (571) 
Cn1nc(C2CC2)c2c(C(=O)Nc3cc4c(cc3F)CNC4=O)cc(C3CC3)nc21

>  <HIPPO Pose ID>  (571) 
125300

>  <energy_score>  (571) 
-37.935425

>  <inchikey>  (571) 
USNPEJNUIRZGMO-UHFFFAOYSA-N

>  <gnina_score_min>  (571) 
6.226

>  <gnina_score>  (571) 
6.462

>  <ref_mols>  (571) 
Z3559a

>  <HIPPO Compound ID>  (571) 
178425

>  <distance_score>  (571) 
0.373425

>  <rmsd(smina/fragmenstein)>  (571) 
0.777

>  <ref_pdb>  (571) 
Z3559a

>  <inspiration_score>  (571) 
None

$$$$
P125304
     RDKit          3D

 30 34  0  0  0  0  0  0  0  0999 V2000
   -4.0665    7.5697  -20.6221 C   0  0  0  0  0  0  0  0  0  0  0  0
   -4.5646    7.2433  -19.2211 C   0  0  0  0  0  0  0  0  0  0  0  0
   -4.6186    5.7298  -18.9098 C   0  0  2  0  0  0  0  0  0  0  0  0
   -5.5093    4.9967  -19.9068 C   0  0  0  0  0  0  0  0  0  0  0  0
   -4.9875    5.5328  -17.5048 N   0  0  0  0  0  0  0  0  0  0  0  0
   -4.0970    5.9220  -16.5532 N   0  0  0  0  0  0  0  0  0  0  0  0
   -4.7779    5.7828  -15.4120 C   0  0  0  0  0  0  0  0  0  0  0  0
   -6.0741    5.2634  -15.6040 C   0  0  0  0  0  0  0  0  0  0  0  0
   -7.1955    4.9390  -14.8253 C   0  0  0  0  0  0  0  0  0  0  0  0
   -7.1877    5.2991  -13.3852 C   0  0  0  0  0  0  0  0  0  0  0  0
   -6.6357    6.2895  -13.1023 O   0  0  0  0  0  0  0  0  0  0  0  0
   -7.9471    4.2830  -12.4949 N   0  0  0  0  0  0  0  0  0  0  0  0
   -8.0988    4.2278  -11.1001 C   0  0  0  0  0  0  0  0  0  0  0  0
   -8.6776    3.0825  -10.5386 C   0  0  0  0  0  0  0  0  0  0  0  0
   -8.8155    3.0387   -9.1578 C   0  0  0  0  0  0  0  0  0  0  0  0
   -8.3885    4.0667   -8.3183 C   0  0  0  0  0  0  0  0  0  0  0  0
   -7.8309    5.2059   -8.8555 C   0  0  0  0  0  0  0  0  0  0  0  0
   -7.6991    5.2813  -10.2452 C   0  0  0  0  0  0  0  0  0  0  0  0
   -7.1928    6.4228  -10.7258 F   0  0  0  0  0  0  0  0  0  0  0  0
   -8.6530    3.7153   -6.8948 C   0  0  0  0  0  0  0  0  0  0  0  0
   -9.3145    2.4466   -7.0020 N   0  0  0  0  0  0  0  0  0  0  0  0
   -9.4260    2.0110   -8.3052 C   0  0  0  0  0  0  0  0  0  0  0  0
   -9.9711    0.9967   -8.6809 O   0  0  0  0  0  0  0  0  0  0  0  0
   -8.3200    4.4300  -15.4860 C   0  0  0  0  0  0  0  0  0  0  0  0
   -8.3091    4.2788  -16.8783 C   0  0  0  0  0  0  0  0  0  0  0  0
   -9.5536    3.8035  -17.6012 C   0  0  0  0  0  0  0  0  0  0  0  0
   -9.7349    4.0428  -19.0806 C   0  0  0  0  0  0  0  0  0  0  0  0
   -9.4600    2.6579  -18.5808 C   0  0  0  0  0  0  0  0  0  0  0  0
   -7.2378    4.6133  -17.6311 N   0  0  0  0  0  0  0  0  0  0  0  0
   -6.1724    5.0869  -16.9710 C   0  0  0  0  0  0  0  0  0  0  0  0
  1  2  1  0
  2  3  1  0
  3  4  1  6
  3  5  1  0
  5  6  1  0
  6  7  2  0
  7  8  1  0
  8  9  2  0
  9 10  1  0
 10 11  2  0
 10 12  1  0
 12 13  1  0
 13 14  2  0
 14 15  1  0
 15 16  2  0
 16 17  1  0
 17 18  2  0
 18 19  1  0
 16 20  1  0
 20 21  1  0
 21 22  1  0
 22 23  2  0
  9 24  1  0
 24 25  2  0
 25 26  1  0
 26 27  1  0
 27 28  1  0
 25 29  1  0
 29 30  2  0
 30  5  1  0
 30  8  1  0
 18 13  1  0
 28 26  1  0
 22 15  1  0
M  END
>  <name>  (572) 
P125304

>  <alias>  (572) 
None

>  <smina_score_min>  (572) 
-8.607

>  <exports>  (572) 
['/opt/xchem-fragalysis-2/maxwin/BulkDock/OUTPUTS/openbind_xx01zvns2b_c2_elabs_1LOUTNY.sdf', '/opt/xchem-fragalysis-2/maxwin/BulkDock/OUTPUTS/openbind_xx01zvns2b_c2_elabs_1LSYIIV.sdf']

>  <tags>  (572) 
syndirella_placed,openbind_xx01zvns2b_c2_elabs,openbind_xx01zvns2b_c2_elabs_scored_6.2plus,syndirella_product,openbind_xx01zvns2b_c2_elabs_scored,openbind_xx01zvns2b_c2_elabs_scored_top80percent,BulkDock Fragalysis export

>  <subsites>  (572) 
1 - Z4590/B/203/1

>  <smiles>  (572) 
CC[C@H](C)n1ncc2c(C(=O)Nc3cc4c(cc3F)CNC4=O)cc(C3CC3)nc21

>  <HIPPO Pose ID>  (572) 
125304

>  <energy_score>  (572) 
-35.354703

>  <inchikey>  (572) 
CYFVYONDGMIWPP-NSHDSACASA-N

>  <gnina_score_min>  (572) 
6.256

>  <gnina_score>  (572) 
6.336

>  <ref_mols>  (572) 
Z3559a

>  <HIPPO Compound ID>  (572) 
178305

>  <distance_score>  (572) 
0.352253

>  <rmsd(smina/fragmenstein)>  (572) 
0.556

>  <ref_pdb>  (572) 
Z3559a

>  <inspiration_score>  (572) 
None

$$$$
P125306
     RDKit          3D

 30 34  0  0  0  0  0  0  0  0999 V2000
   -4.7505    5.0043  -21.2682 C   0  0  0  0  0  0  0  0  0  0  0  0
   -5.3792    5.0779  -19.8826 C   0  0  0  0  0  0  0  0  0  0  0  0
   -4.5054    5.7866  -18.8345 C   0  0  1  0  0  0  0  0  0  0  0  0
   -4.3467    7.2746  -19.1863 C   0  0  0  0  0  0  0  0  0  0  0  0
   -4.9628    5.6583  -17.4458 N   0  0  0  0  0  0  0  0  0  0  0  0
   -4.1539    6.1379  -16.4631 N   0  0  0  0  0  0  0  0  0  0  0  0
   -4.8833    5.9920  -15.3531 C   0  0  0  0  0  0  0  0  0  0  0  0
   -6.1332    5.3857  -15.5898 C   0  0  0  0  0  0  0  0  0  0  0  0
   -7.2703    5.0058  -14.8549 C   0  0  0  0  0  0  0  0  0  0  0  0
   -7.3366    5.3700  -13.4141 C   0  0  0  0  0  0  0  0  0  0  0  0
   -6.8620    6.3969  -13.1178 O   0  0  0  0  0  0  0  0  0  0  0  0
   -7.9971    4.2769  -12.5341 N   0  0  0  0  0  0  0  0  0  0  0  0
   -8.1206    4.1819  -11.1439 C   0  0  0  0  0  0  0  0  0  0  0  0
   -7.6392    5.2274  -10.3237 C   0  0  0  0  0  0  0  0  0  0  0  0
   -7.6851    5.1422   -8.9275 C   0  0  0  0  0  0  0  0  0  0  0  0
   -8.2378    4.0032   -8.3846 C   0  0  0  0  0  0  0  0  0  0  0  0
   -8.7515    2.9929   -9.1784 C   0  0  0  0  0  0  0  0  0  0  0  0
   -8.6961    3.0443  -10.5644 C   0  0  0  0  0  0  0  0  0  0  0  0
   -9.3184    1.9926   -8.2706 C   0  0  0  0  0  0  0  0  0  0  0  0
   -9.9600    1.0208   -8.6089 O   0  0  0  0  0  0  0  0  0  0  0  0
   -9.0517    2.4135   -7.0019 N   0  0  0  0  0  0  0  0  0  0  0  0
   -8.3966    3.6040   -6.9847 C   0  0  0  0  0  0  0  0  0  0  0  0
   -7.9880    4.2347   -6.0266 O   0  0  0  0  0  0  0  0  0  0  0  0
   -8.3069    4.3711  -15.5498 C   0  0  0  0  0  0  0  0  0  0  0  0
   -8.1822    4.1350  -16.9238 C   0  0  0  0  0  0  0  0  0  0  0  0
   -9.2020    3.3061  -17.6613 C   0  0  0  0  0  0  0  0  0  0  0  0
  -10.4047    3.8986  -18.3527 C   0  0  0  0  0  0  0  0  0  0  0  0
   -9.2597    3.3864  -19.1663 C   0  0  0  0  0  0  0  0  0  0  0  0
   -7.1200    4.5579  -17.6414 N   0  0  0  0  0  0  0  0  0  0  0  0
   -6.1407    5.1531  -16.9524 C   0  0  0  0  0  0  0  0  0  0  0  0
  1  2  1  0
  2  3  1  0
  3  4  1  6
  3  5  1  0
  5  6  1  0
  6  7  2  0
  7  8  1  0
  8  9  2  0
  9 10  1  0
 10 11  2  0
 10 12  1  0
 12 13  1  0
 13 14  2  0
 14 15  1  0
 15 16  2  0
 16 17  1  0
 17 18  2  0
 17 19  1  0
 19 20  2  0
 19 21  1  0
 21 22  1  0
 22 23  2  0
  9 24  1  0
 24 25  2  0
 25 26  1  0
 26 27  1  0
 27 28  1  0
 25 29  1  0
 29 30  2  0
 30  5  1  0
 30  8  1  0
 18 13  1  0
 28 26  1  0
 22 16  1  0
M  END
>  <name>  (573) 
P125306

>  <alias>  (573) 
None

>  <smina_score_min>  (573) 
-8.966

>  <exports>  (573) 
['/opt/xchem-fragalysis-2/maxwin/BulkDock/OUTPUTS/openbind_xx01zvns2b_c2_elabs_1LOUTNY.sdf', '/opt/xchem-fragalysis-2/maxwin/BulkDock/OUTPUTS/openbind_xx01zvns2b_c2_elabs_1LSYIIV.sdf']

>  <tags>  (573) 
syndirella_placed,openbind_xx01zvns2b_c2_elabs,openbind_xx01zvns2b_c2_elabs_scored_6.2plus,syndirella_product,openbind_xx01zvns2b_c2_elabs_scored,openbind_xx01zvns2b_c2_elabs_scored_top80percent,BulkDock Fragalysis export

>  <subsites>  (573) 
1 - Z4590/B/203/1

>  <smiles>  (573) 
CC[C@@H](C)n1ncc2c(C(=O)Nc3ccc4c(c3)C(=O)NC4=O)cc(C3CC3)nc21

>  <HIPPO Pose ID>  (573) 
125306

>  <energy_score>  (573) 
-48.063499

>  <inchikey>  (573) 
LPQLLJSCMADIRA-LLVKDONJSA-N

>  <gnina_score_min>  (573) 
6.363

>  <gnina_score>  (573) 
6.207

>  <ref_mols>  (573) 
Z3559a

>  <HIPPO Compound ID>  (573) 
178265

>  <distance_score>  (573) 
0.478198

>  <rmsd(smina/fragmenstein)>  (573) 
0.955

>  <ref_pdb>  (573) 
Z3559a

>  <inspiration_score>  (573) 
None

$$$$
P125307
     RDKit          3D

 30 34  0  0  0  0  0  0  0  0999 V2000
   -9.8256    2.0554   -6.2732 C   0  0  0  0  0  0  0  0  0  0  0  0
   -9.1720    2.6593   -7.4032 N   0  0  0  0  0  0  0  0  0  0  0  0
   -9.0934    1.9864   -8.6888 C   0  0  0  0  0  0  0  0  0  0  0  0
   -8.6075    3.0727   -9.5918 C   0  0  0  0  0  0  0  0  0  0  0  0
   -8.4250    3.0745  -10.9688 C   0  0  0  0  0  0  0  0  0  0  0  0
   -8.0202    4.2664  -11.5844 C   0  0  0  0  0  0  0  0  0  0  0  0
   -7.8387    4.3041  -12.9695 N   0  0  0  0  0  0  0  0  0  0  0  0
   -7.4387    5.4722  -13.8975 C   0  0  0  0  0  0  0  0  0  0  0  0
   -7.2730    6.6039  -13.6615 O   0  0  0  0  0  0  0  0  0  0  0  0
   -7.1863    5.0396  -15.2883 C   0  0  0  0  0  0  0  0  0  0  0  0
   -8.1682    4.4661  -16.1122 C   0  0  0  0  0  0  0  0  0  0  0  0
   -7.9109    4.3047  -17.4865 C   0  0  0  0  0  0  0  0  0  0  0  0
   -8.9104    3.8242  -18.5081 C   0  0  0  0  0  0  0  0  0  0  0  0
  -10.3795    3.6820  -18.2802 C   0  0  0  0  0  0  0  0  0  0  0  0
   -9.5042    2.4565  -18.3633 C   0  0  0  0  0  0  0  0  0  0  0  0
   -6.7272    4.6353  -18.0452 N   0  0  0  0  0  0  0  0  0  0  0  0
   -5.8285    5.1768  -17.2229 C   0  0  0  0  0  0  0  0  0  0  0  0
   -5.9700    5.4127  -15.8739 C   0  0  0  0  0  0  0  0  0  0  0  0
   -4.7670    6.0556  -15.5118 C   0  0  0  0  0  0  0  0  0  0  0  0
   -3.9370    6.2315  -16.5498 N   0  0  0  0  0  0  0  0  0  0  0  0
   -4.6047    5.6634  -17.5800 N   0  0  0  0  0  0  0  0  0  0  0  0
   -4.1059    5.7557  -18.9316 C   0  0  0  0  0  0  0  0  0  0  0  0
   -2.6201    5.5116  -19.0261 C   0  0  0  0  0  0  0  0  0  0  0  0
   -2.3454    4.2055  -18.7814 F   0  0  0  0  0  0  0  0  0  0  0  0
   -2.2278    5.7459  -20.3100 F   0  0  0  0  0  0  0  0  0  0  0  0
   -7.7883    5.4211  -10.8080 C   0  0  0  0  0  0  0  0  0  0  0  0
   -7.9651    5.4107   -9.4221 C   0  0  0  0  0  0  0  0  0  0  0  0
   -8.3755    4.2275   -8.8467 C   0  0  0  0  0  0  0  0  0  0  0  0
   -8.7416    3.9672   -7.4492 C   0  0  0  0  0  0  0  0  0  0  0  0
   -8.7161    4.8007   -6.5621 O   0  0  0  0  0  0  0  0  0  0  0  0
  1  2  1  0
  2  3  1  0
  3  4  1  0
  4  5  2  0
  5  6  1  0
  6  7  1  0
  7  8  1  0
  8  9  2  0
  8 10  1  0
 10 11  2  0
 11 12  1  0
 12 13  1  0
 13 14  1  0
 14 15  1  0
 12 16  2  0
 16 17  1  0
 17 18  2  0
 18 19  1  0
 19 20  2  0
 20 21  1  0
 21 22  1  0
 22 23  1  0
 23 24  1  0
 23 25  1  0
  6 26  2  0
 26 27  1  0
 27 28  2  0
 28 29  1  0
 29 30  2  0
 29  2  1  0
 28  4  1  0
 18 10  1  0
 15 13  1  0
 21 17  1  0
M  END
>  <name>  (574) 
P125307

>  <alias>  (574) 
None

>  <smina_score_min>  (574) 
-9.278

>  <exports>  (574) 
['/opt/xchem-fragalysis-2/maxwin/BulkDock/OUTPUTS/openbind_xx01zvns2b_c2_elabs_1LOUTNY.sdf', '/opt/xchem-fragalysis-2/maxwin/BulkDock/OUTPUTS/openbind_xx01zvns2b_c2_elabs_1LSYIIV.sdf']

>  <tags>  (574) 
syndirella_placed,openbind_xx01zvns2b_c2_elabs,openbind_xx01zvns2b_c2_elabs_scored_6.2plus,syndirella_product,openbind_xx01zvns2b_c2_elabs_scored,openbind_xx01zvns2b_c2_elabs_scored_top80percent,BulkDock Fragalysis export

>  <subsites>  (574) 
1 - Z4590/B/203/1

>  <smiles>  (574) 
CN1Cc2cc(NC(=O)c3cc(C4CC4)nc4c3cnn4CC(F)F)ccc2C1=O

>  <HIPPO Pose ID>  (574) 
125307

>  <energy_score>  (574) 
-38.084761

>  <inchikey>  (574) 
FEPGZMILBBHSGK-UHFFFAOYSA-N

>  <gnina_score_min>  (574) 
6.329

>  <gnina_score>  (574) 
6.241

>  <ref_mols>  (574) 
Z3559a

>  <HIPPO Compound ID>  (574) 
178469

>  <distance_score>  (574) 
0.648573

>  <rmsd(smina/fragmenstein)>  (574) 
0.791

>  <ref_pdb>  (574) 
Z3559a

>  <inspiration_score>  (574) 
None

$$$$
P125310
     RDKit          3D

 30 34  0  0  0  0  0  0  0  0999 V2000
  -10.9242    3.1615   -5.5730 C   0  0  0  0  0  0  0  0  0  0  0  0
   -9.6112    2.4681   -5.8761 C   0  0  0  0  0  0  0  0  0  0  0  0
   -8.8722    2.9195   -7.0254 N   0  0  0  0  0  0  0  0  0  0  0  0
   -8.5461    4.3292   -7.1448 C   0  0  0  0  0  0  0  0  0  0  0  0
   -8.2627    4.5086   -8.5985 C   0  0  0  0  0  0  0  0  0  0  0  0
   -7.7482    5.6161   -9.2383 C   0  0  0  0  0  0  0  0  0  0  0  0
   -7.5896    5.5543  -10.6208 C   0  0  0  0  0  0  0  0  0  0  0  0
   -7.9514    4.4040  -11.3437 C   0  0  0  0  0  0  0  0  0  0  0  0
   -7.7859    4.3772  -12.7270 N   0  0  0  0  0  0  0  0  0  0  0  0
   -7.1827    5.4307  -13.6881 C   0  0  0  0  0  0  0  0  0  0  0  0
   -6.8014    6.5158  -13.4798 O   0  0  0  0  0  0  0  0  0  0  0  0
   -7.1735    4.9800  -15.0940 C   0  0  0  0  0  0  0  0  0  0  0  0
   -8.3039    4.4175  -15.6971 C   0  0  0  0  0  0  0  0  0  0  0  0
   -8.3226    4.1974  -17.0784 C   0  0  0  0  0  0  0  0  0  0  0  0
   -9.5955    3.7299  -17.7431 C   0  0  0  0  0  0  0  0  0  0  0  0
   -9.7962    3.9003  -19.2276 C   0  0  0  0  0  0  0  0  0  0  0  0
   -9.5629    2.5329  -18.6579 C   0  0  0  0  0  0  0  0  0  0  0  0
   -7.2616    4.4695  -17.8746 N   0  0  0  0  0  0  0  0  0  0  0  0
   -6.2088    5.0206  -17.2579 C   0  0  0  0  0  0  0  0  0  0  0  0
   -6.0842    5.3021  -15.9128 C   0  0  0  0  0  0  0  0  0  0  0  0
   -4.8151    5.9103  -15.8052 C   0  0  0  0  0  0  0  0  0  0  0  0
   -4.1865    6.0177  -16.9844 N   0  0  0  0  0  0  0  0  0  0  0  0
   -5.0638    5.4710  -17.8564 N   0  0  0  0  0  0  0  0  0  0  0  0
   -4.8277    5.4881  -19.2841 C   0  0  0  0  0  0  0  0  0  0  0  0
   -3.3674    5.4044  -19.6616 C   0  0  0  0  0  0  0  0  0  0  0  0
   -3.2575    4.6838  -20.8176 F   0  0  0  0  0  0  0  0  0  0  0  0
   -2.8936    6.6446  -19.9564 F   0  0  0  0  0  0  0  0  0  0  0  0
   -8.4839    3.2905  -10.6830 C   0  0  0  0  0  0  0  0  0  0  0  0
   -8.6309    3.3598   -9.3045 C   0  0  0  0  0  0  0  0  0  0  0  0
   -9.1913    2.3533   -8.3412 C   0  0  0  0  0  0  0  0  0  0  0  0
  1  2  1  0
  2  3  1  0
  3  4  1  0
  4  5  1  0
  5  6  2  0
  6  7  1  0
  7  8  2  0
  8  9  1  0
  9 10  1  0
 10 11  2  0
 10 12  1  0
 12 13  2  0
 13 14  1  0
 14 15  1  0
 15 16  1  0
 16 17  1  0
 14 18  2  0
 18 19  1  0
 19 20  2  0
 20 21  1  0
 21 22  2  0
 22 23  1  0
 23 24  1  0
 24 25  1  0
 25 26  1  0
 25 27  1  0
  8 28  1  0
 28 29  2  0
 29 30  1  0
 30  3  1  0
 29  5  1  0
 20 12  1  0
 17 15  1  0
 23 19  1  0
M  END
>  <name>  (575) 
P125310

>  <alias>  (575) 
None

>  <smina_score_min>  (575) 
-9.237

>  <exports>  (575) 
['/opt/xchem-fragalysis-2/maxwin/BulkDock/OUTPUTS/openbind_xx01zvns2b_c2_elabs_1LOUTNY.sdf', '/opt/xchem-fragalysis-2/maxwin/BulkDock/OUTPUTS/openbind_xx01zvns2b_c2_elabs_1LSYIIV.sdf']

>  <tags>  (575) 
syndirella_placed,openbind_xx01zvns2b_c2_elabs,openbind_xx01zvns2b_c2_elabs_scored_6.2plus,syndirella_product,openbind_xx01zvns2b_c2_elabs_scored,openbind_xx01zvns2b_c2_elabs_scored_top80percent,BulkDock Fragalysis export

>  <subsites>  (575) 
1 - Z4590/B/203/1

>  <smiles>  (575) 
CCN1Cc2ccc(NC(=O)c3cc(C4CC4)nc4c3cnn4CC(F)F)cc2C1

>  <HIPPO Pose ID>  (575) 
125310

>  <energy_score>  (575) 
-15.817159

>  <inchikey>  (575) 
HOUZYBNTAHPTLX-UHFFFAOYSA-N

>  <gnina_score_min>  (575) 
6.433

>  <gnina_score>  (575) 
6.14

>  <ref_mols>  (575) 
Z3559a

>  <HIPPO Compound ID>  (575) 
178478

>  <distance_score>  (575) 
0.454881

>  <rmsd(smina/fragmenstein)>  (575) 
1.085

>  <ref_pdb>  (575) 
Z3559a

>  <inspiration_score>  (575) 
None

$$$$
P125312
     RDKit          3D

 30 35  0  0  0  0  0  0  0  0999 V2000
   -4.8119    7.7804  -19.3244 C   0  0  0  0  0  0  0  0  0  0  0  0
   -5.0429    6.2627  -19.2585 C   0  0  1  0  0  0  0  0  0  0  0  0
   -4.0581    5.5147  -20.1301 C   0  0  0  0  0  0  0  0  0  0  0  0
   -4.5571    4.5854  -21.2175 C   0  0  0  0  0  0  0  0  0  0  0  0
   -3.9145    5.8818  -21.5953 C   0  0  0  0  0  0  0  0  0  0  0  0
   -5.0481    5.8132  -17.8579 N   0  0  0  0  0  0  0  0  0  0  0  0
   -4.1203    6.2655  -16.9717 N   0  0  0  0  0  0  0  0  0  0  0  0
   -4.7009    6.0478  -15.7826 C   0  0  0  0  0  0  0  0  0  0  0  0
   -5.9533    5.4055  -15.8864 C   0  0  0  0  0  0  0  0  0  0  0  0
   -7.0060    4.9970  -15.0529 C   0  0  0  0  0  0  0  0  0  0  0  0
   -6.9959    5.3823  -13.6177 C   0  0  0  0  0  0  0  0  0  0  0  0
   -6.5596    6.4342  -13.3532 O   0  0  0  0  0  0  0  0  0  0  0  0
   -7.5932    4.2839  -12.7024 N   0  0  0  0  0  0  0  0  0  0  0  0
   -7.8556    4.2901  -11.3307 C   0  0  0  0  0  0  0  0  0  0  0  0
   -7.6206    5.4406  -10.5593 C   0  0  0  0  0  0  0  0  0  0  0  0
   -7.8663    5.4488   -9.1822 C   0  0  0  0  0  0  0  0  0  0  0  0
   -8.3392    4.2911   -8.5942 C   0  0  0  0  0  0  0  0  0  0  0  0
   -8.5806    3.1491   -9.3527 C   0  0  0  0  0  0  0  0  0  0  0  0
   -8.3530    3.1315  -10.7233 C   0  0  0  0  0  0  0  0  0  0  0  0
   -9.1080    2.0669   -8.4611 C   0  0  0  0  0  0  0  0  0  0  0  0
   -8.9751    2.5957   -7.0861 N   0  0  0  0  0  0  0  0  0  0  0  0
  -10.0806    2.2489   -6.2175 C   0  0  0  0  0  0  0  0  0  0  0  0
   -8.6898    4.0324   -7.1645 C   0  0  0  0  0  0  0  0  0  0  0  0
   -8.0898    4.3439  -15.6556 C   0  0  0  0  0  0  0  0  0  0  0  0
   -8.0890    4.1130  -17.0368 C   0  0  0  0  0  0  0  0  0  0  0  0
   -9.1513    3.2514  -17.6581 C   0  0  0  0  0  0  0  0  0  0  0  0
  -10.2733    3.8222  -18.4871 C   0  0  0  0  0  0  0  0  0  0  0  0
   -9.1770    3.0458  -19.1498 C   0  0  0  0  0  0  0  0  0  0  0  0
   -7.1222    4.5805  -17.8534 N   0  0  0  0  0  0  0  0  0  0  0  0
   -6.1049    5.1945  -17.2431 C   0  0  0  0  0  0  0  0  0  0  0  0
  2  1  1  1
  2  3  1  0
  3  4  1  0
  4  5  1  0
  2  6  1  0
  6  7  1  0
  7  8  2  0
  8  9  1  0
  9 10  2  0
 10 11  1  0
 11 12  2  0
 11 13  1  0
 13 14  1  0
 14 15  2  0
 15 16  1  0
 16 17  2  0
 17 18  1  0
 18 19  2  0
 18 20  1  0
 20 21  1  0
 21 22  1  0
 21 23  1  0
 10 24  1  0
 24 25  2  0
 25 26  1  0
 26 27  1  0
 27 28  1  0
 25 29  1  0
 29 30  2  0
  5  3  1  0
 30  6  1  0
 30  9  1  0
 19 14  1  0
 28 26  1  0
 23 17  1  0
M  END
>  <name>  (576) 
P125312

>  <alias>  (576) 
None

>  <smina_score_min>  (576) 
-9.052

>  <exports>  (576) 
['/opt/xchem-fragalysis-2/maxwin/BulkDock/OUTPUTS/openbind_xx01zvns2b_c2_elabs_1LOUTNY.sdf', '/opt/xchem-fragalysis-2/maxwin/BulkDock/OUTPUTS/openbind_xx01zvns2b_c2_elabs_1LSYIIV.sdf']

>  <tags>  (576) 
syndirella_placed,openbind_xx01zvns2b_c2_elabs,openbind_xx01zvns2b_c2_elabs_scored_6.2plus,syndirella_product,openbind_xx01zvns2b_c2_elabs_scored,openbind_xx01zvns2b_c2_elabs_scored_top80percent,BulkDock Fragalysis export

>  <subsites>  (576) 
1 - Z4590/B/203/1

>  <smiles>  (576) 
C[C@@H](C1CC1)n1ncc2c(C(=O)Nc3ccc4c(c3)CN(C)C4)cc(C3CC3)nc21

>  <HIPPO Pose ID>  (576) 
125312

>  <energy_score>  (576) 
-51.567172

>  <inchikey>  (576) 
RXJFSHPQAJOLIF-AWEZNQCLSA-N

>  <gnina_score_min>  (576) 
6.494

>  <gnina_score>  (576) 
6.338

>  <ref_mols>  (576) 
Z3559a

>  <HIPPO Compound ID>  (576) 
178504

>  <distance_score>  (576) 
0.511212

>  <rmsd(smina/fragmenstein)>  (576) 
0.974

>  <ref_pdb>  (576) 
Z3559a

>  <inspiration_score>  (576) 
None

$$$$
P125315
     RDKit          3D

 30 35  0  0  0  0  0  0  0  0999 V2000
   -4.5061    5.1405  -20.0710 C   0  0  0  0  0  0  0  0  0  0  0  0
   -5.1481    6.2048  -19.1967 C   0  0  2  0  0  0  0  0  0  0  0  0
   -4.5739    7.6079  -19.3487 C   0  0  0  0  0  0  0  0  0  0  0  0
   -3.2169    7.8960  -19.9476 C   0  0  0  0  0  0  0  0  0  0  0  0
   -4.4629    8.2685  -20.7040 C   0  0  0  0  0  0  0  0  0  0  0  0
   -5.1882    5.7815  -17.7873 N   0  0  0  0  0  0  0  0  0  0  0  0
   -4.2418    6.1791  -16.8961 N   0  0  0  0  0  0  0  0  0  0  0  0
   -4.8102    5.9248  -15.7102 C   0  0  0  0  0  0  0  0  0  0  0  0
   -6.0825    5.3250  -15.8243 C   0  0  0  0  0  0  0  0  0  0  0  0
   -7.1406    4.9284  -14.9939 C   0  0  0  0  0  0  0  0  0  0  0  0
   -7.1081    5.2892  -13.5544 C   0  0  0  0  0  0  0  0  0  0  0  0
   -6.6794    6.3414  -13.2814 O   0  0  0  0  0  0  0  0  0  0  0  0
   -7.6797    4.1727  -12.6472 N   0  0  0  0  0  0  0  0  0  0  0  0
   -7.9222    4.1566  -11.2722 C   0  0  0  0  0  0  0  0  0  0  0  0
   -7.6127    5.2761  -10.4742 C   0  0  0  0  0  0  0  0  0  0  0  0
   -7.7997    5.2484   -9.0885 C   0  0  0  0  0  0  0  0  0  0  0  0
   -8.2884    4.0821   -8.5383 C   0  0  0  0  0  0  0  0  0  0  0  0
   -8.6083    2.9680   -9.3099 C   0  0  0  0  0  0  0  0  0  0  0  0
   -8.4410    2.9941  -10.6873 C   0  0  0  0  0  0  0  0  0  0  0  0
   -9.0498    1.8561   -8.4182 C   0  0  0  0  0  0  0  0  0  0  0  0
   -9.0738    2.4793   -7.1112 N   0  0  0  0  0  0  0  0  0  0  0  0
   -8.5248    3.7440   -7.1288 C   0  0  0  0  0  0  0  0  0  0  0  0
   -8.2535    4.4478   -6.1742 O   0  0  0  0  0  0  0  0  0  0  0  0
   -8.2763    4.3805  -15.6061 C   0  0  0  0  0  0  0  0  0  0  0  0
   -8.3329    4.2524  -17.0000 C   0  0  0  0  0  0  0  0  0  0  0  0
   -9.5965    3.7589  -17.6673 C   0  0  0  0  0  0  0  0  0  0  0  0
   -9.5275    2.5884  -18.6171 C   0  0  0  0  0  0  0  0  0  0  0  0
   -9.8204    3.9594  -19.1464 C   0  0  0  0  0  0  0  0  0  0  0  0
   -7.3217    4.6454  -17.8059 N   0  0  0  0  0  0  0  0  0  0  0  0
   -6.2608    5.1744  -17.1854 C   0  0  0  0  0  0  0  0  0  0  0  0
  2  1  1  6
  2  3  1  0
  3  4  1  0
  4  5  1  0
  2  6  1  0
  6  7  1  0
  7  8  2  0
  8  9  1  0
  9 10  2  0
 10 11  1  0
 11 12  2  0
 11 13  1  0
 13 14  1  0
 14 15  2  0
 15 16  1  0
 16 17  2  0
 17 18  1  0
 18 19  2  0
 18 20  1  0
 20 21  1  0
 21 22  1  0
 22 23  2  0
 10 24  1  0
 24 25  2  0
 25 26  1  0
 26 27  1  0
 27 28  1  0
 25 29  1  0
 29 30  2  0
  5  3  1  0
 30  6  1  0
 30  9  1  0
 19 14  1  0
 28 26  1  0
 22 17  1  0
M  END
>  <name>  (577) 
P125315

>  <alias>  (577) 
None

>  <smina_score_min>  (577) 
-9.014

>  <exports>  (577) 
['/opt/xchem-fragalysis-2/maxwin/BulkDock/OUTPUTS/openbind_xx01zvns2b_c2_elabs_1LOUTNY.sdf', '/opt/xchem-fragalysis-2/maxwin/BulkDock/OUTPUTS/openbind_xx01zvns2b_c2_elabs_1LSYIIV.sdf']

>  <tags>  (577) 
syndirella_placed,openbind_xx01zvns2b_c2_elabs,openbind_xx01zvns2b_c2_elabs_scored_6.2plus,syndirella_product,openbind_xx01zvns2b_c2_elabs_scored,openbind_xx01zvns2b_c2_elabs_scored_top80percent,BulkDock Fragalysis export

>  <subsites>  (577) 
1 - Z4590/B/203/1

>  <smiles>  (577) 
C[C@H](C1CC1)n1ncc2c(C(=O)Nc3ccc4c(c3)CNC4=O)cc(C3CC3)nc21

>  <HIPPO Pose ID>  (577) 
125315

>  <energy_score>  (577) 
-51.062432

>  <inchikey>  (577) 
JZBBQPKRTXWYFO-GFCCVEGCSA-N

>  <gnina_score_min>  (577) 
6.273

>  <gnina_score>  (577) 
6.311

>  <ref_mols>  (577) 
Z3559a

>  <HIPPO Compound ID>  (577) 
178483

>  <distance_score>  (577) 
0.365555

>  <rmsd(smina/fragmenstein)>  (577) 
1.033

>  <ref_pdb>  (577) 
Z3559a

>  <inspiration_score>  (577) 
None

$$$$
P125323
     RDKit          3D

 30 34  0  0  0  0  0  0  0  0999 V2000
   -9.1085    4.3536   -2.8952 C   0  0  0  0  0  0  0  0  0  0  0  0
   -8.7657    3.9475   -4.3196 C   0  0  0  0  0  0  0  0  0  0  0  0
   -9.8768    3.1246   -4.9854 C   0  0  0  0  0  0  0  0  0  0  0  0
   -9.4339    2.3249   -6.2225 C   0  0  0  0  0  0  0  0  0  0  0  0
   -9.4190    3.1116   -7.4379 N   0  0  0  0  0  0  0  0  0  0  0  0
   -8.5064    4.2559   -7.4230 C   0  0  0  0  0  0  0  0  0  0  0  0
   -8.1962    4.4809   -8.8577 C   0  0  0  0  0  0  0  0  0  0  0  0
   -7.6863    5.6110   -9.4580 C   0  0  0  0  0  0  0  0  0  0  0  0
   -7.5076    5.5791  -10.8351 C   0  0  0  0  0  0  0  0  0  0  0  0
   -7.8147    4.4235  -11.5721 C   0  0  0  0  0  0  0  0  0  0  0  0
   -7.6385    4.4082  -12.9477 N   0  0  0  0  0  0  0  0  0  0  0  0
   -7.1020    5.4961  -13.9017 C   0  0  0  0  0  0  0  0  0  0  0  0
   -6.7963    6.6018  -13.6919 O   0  0  0  0  0  0  0  0  0  0  0  0
   -7.0872    5.0091  -15.2831 C   0  0  0  0  0  0  0  0  0  0  0  0
   -8.2518    4.4829  -15.8430 C   0  0  0  0  0  0  0  0  0  0  0  0
   -8.2875    4.2012  -17.2101 C   0  0  0  0  0  0  0  0  0  0  0  0
   -9.5740    3.7474  -17.8462 C   0  0  0  0  0  0  0  0  0  0  0  0
   -9.5825    2.5096  -18.7022 C   0  0  0  0  0  0  0  0  0  0  0  0
   -9.7697    3.8576  -19.3339 C   0  0  0  0  0  0  0  0  0  0  0  0
   -7.1960    4.3994  -17.9984 N   0  0  0  0  0  0  0  0  0  0  0  0
   -6.0840    4.8894  -17.4334 C   0  0  0  0  0  0  0  0  0  0  0  0
   -6.0049    5.2091  -16.0965 C   0  0  0  0  0  0  0  0  0  0  0  0
   -4.6697    5.7511  -15.8927 C   0  0  0  0  0  0  0  0  0  0  0  0
   -4.1075    5.9471  -14.8341 O   0  0  0  0  0  0  0  0  0  0  0  0
   -4.1147    5.9097  -17.1550 N   0  0  0  0  0  0  0  0  0  0  0  0
   -4.8585    5.1644  -18.1088 N   0  0  0  0  0  0  0  0  0  0  0  0
   -5.0859    5.7757  -19.4089 C   0  0  0  0  0  0  0  0  0  0  0  0
   -8.3187    3.2788  -10.9456 C   0  0  0  0  0  0  0  0  0  0  0  0
   -8.5193    3.3328   -9.5816 C   0  0  0  0  0  0  0  0  0  0  0  0
   -9.0879    2.3135   -8.6428 C   0  0  0  0  0  0  0  0  0  0  0  0
  1  2  1  0
  2  3  1  0
  3  4  1  0
  4  5  1  0
  5  6  1  0
  6  7  1  0
  7  8  2  0
  8  9  1  0
  9 10  2  0
 10 11  1  0
 11 12  1  0
 12 13  2  0
 12 14  1  0
 14 15  2  0
 15 16  1  0
 16 17  1  0
 17 18  1  0
 18 19  1  0
 16 20  2  0
 20 21  1  0
 21 22  2  0
 22 23  1  0
 23 24  2  0
 23 25  1  0
 25 26  1  0
 26 27  1  0
 10 28  1  0
 28 29  2  0
 29 30  1  0
 30  5  1  0
 29  7  1  0
 22 14  1  0
 19 17  1  0
 26 21  1  0
M  END
>  <name>  (578) 
P125323

>  <alias>  (578) 
None

>  <smina_score_min>  (578) 
-9.196

>  <exports>  (578) 
['/opt/xchem-fragalysis-2/maxwin/BulkDock/OUTPUTS/openbind_xx01zvns2b_c2_elabs_1LOUTNY.sdf', '/opt/xchem-fragalysis-2/maxwin/BulkDock/OUTPUTS/openbind_xx01zvns2b_c2_elabs_1LSYIIV.sdf']

>  <tags>  (578) 
syndirella_placed,openbind_xx01zvns2b_c2_elabs,openbind_xx01zvns2b_c2_elabs_scored_6.2plus,syndirella_product,openbind_xx01zvns2b_c2_elabs_scored,openbind_xx01zvns2b_c2_elabs_scored_top80percent,BulkDock Fragalysis export

>  <subsites>  (578) 
1 - Z4590/B/203/1

>  <smiles>  (578) 
CCCCN1Cc2ccc(NC(=O)c3cc(C4CC4)nc4c3c(=O)[nH]n4C)cc2C1

>  <HIPPO Pose ID>  (578) 
125323

>  <energy_score>  (578) 
-39.08597

>  <inchikey>  (578) 
VLKLNCNCHOBAMH-UHFFFAOYSA-N

>  <gnina_score_min>  (578) 
6.249

>  <gnina_score>  (578) 
6.133

>  <ref_mols>  (578) 
Z3559a

>  <HIPPO Compound ID>  (578) 
178527

>  <distance_score>  (578) 
0.594672

>  <rmsd(smina/fragmenstein)>  (578) 
1.078

>  <ref_pdb>  (578) 
Z3559a

>  <inspiration_score>  (578) 
None

$$$$
P125325
     RDKit          3D

 30 34  0  0  0  0  0  0  0  0999 V2000
  -11.5323    2.5374   -5.2029 C   0  0  0  0  0  0  0  0  0  0  0  0
  -10.0655    2.8739   -5.0558 C   0  0  0  0  0  0  0  0  0  0  0  0
   -9.2519    2.2266   -6.1763 C   0  0  0  0  0  0  0  0  0  0  0  0
   -9.4067    2.9901   -7.3988 N   0  0  0  0  0  0  0  0  0  0  0  0
   -8.6081    4.2256   -7.3779 C   0  0  0  0  0  0  0  0  0  0  0  0
   -8.2776    4.4618   -8.8068 C   0  0  0  0  0  0  0  0  0  0  0  0
   -7.8017    5.6103   -9.3988 C   0  0  0  0  0  0  0  0  0  0  0  0
   -7.5701    5.5753  -10.7683 C   0  0  0  0  0  0  0  0  0  0  0  0
   -7.8084    4.4051  -11.5101 C   0  0  0  0  0  0  0  0  0  0  0  0
   -7.5665    4.3892  -12.8747 N   0  0  0  0  0  0  0  0  0  0  0  0
   -7.0195    5.4875  -13.8074 C   0  0  0  0  0  0  0  0  0  0  0  0
   -6.6136    6.5537  -13.5637 O   0  0  0  0  0  0  0  0  0  0  0  0
   -7.0381    5.0545  -15.2123 C   0  0  0  0  0  0  0  0  0  0  0  0
   -8.1688    4.4737  -15.7899 C   0  0  0  0  0  0  0  0  0  0  0  0
   -8.1985    4.2349  -17.1659 C   0  0  0  0  0  0  0  0  0  0  0  0
   -9.4840    3.7352  -17.7864 C   0  0  0  0  0  0  0  0  0  0  0  0
   -9.7444    3.8984  -19.2602 C   0  0  0  0  0  0  0  0  0  0  0  0
   -9.4635    2.5365  -18.6979 C   0  0  0  0  0  0  0  0  0  0  0  0
   -7.1461    4.5097  -17.9809 N   0  0  0  0  0  0  0  0  0  0  0  0
   -6.0854    5.0731  -17.3763 C   0  0  0  0  0  0  0  0  0  0  0  0
   -5.9579    5.3703  -16.0343 C   0  0  0  0  0  0  0  0  0  0  0  0
   -4.6935    5.9797  -15.9176 C   0  0  0  0  0  0  0  0  0  0  0  0
   -4.0639    6.0873  -17.0913 N   0  0  0  0  0  0  0  0  0  0  0  0
   -4.9320    5.5244  -17.9671 N   0  0  0  0  0  0  0  0  0  0  0  0
   -4.6574    5.5444  -19.3981 C   0  0  0  0  0  0  0  0  0  0  0  0
   -3.1673    5.3998  -19.7231 C   0  0  0  0  0  0  0  0  0  0  0  0
   -5.2159    6.8189  -20.0284 C   0  0  0  0  0  0  0  0  0  0  0  0
   -8.2875    3.2466  -10.8953 C   0  0  0  0  0  0  0  0  0  0  0  0
   -8.5178    3.2956   -9.5357 C   0  0  0  0  0  0  0  0  0  0  0  0
   -9.0196    2.2340   -8.6088 C   0  0  0  0  0  0  0  0  0  0  0  0
  1  2  1  0
  2  3  1  0
  3  4  1  0
  4  5  1  0
  5  6  1  0
  6  7  2  0
  7  8  1  0
  8  9  2  0
  9 10  1  0
 10 11  1  0
 11 12  2  0
 11 13  1  0
 13 14  2  0
 14 15  1  0
 15 16  1  0
 16 17  1  0
 17 18  1  0
 15 19  2  0
 19 20  1  0
 20 21  2  0
 21 22  1  0
 22 23  2  0
 23 24  1  0
 24 25  1  0
 25 26  1  0
 25 27  1  0
  9 28  1  0
 28 29  2  0
 29 30  1  0
 30  4  1  0
 29  6  1  0
 21 13  1  0
 18 16  1  0
 24 20  1  0
M  END
>  <name>  (579) 
P125325

>  <alias>  (579) 
None

>  <smina_score_min>  (579) 
-8.69

>  <exports>  (579) 
['/opt/xchem-fragalysis-2/maxwin/BulkDock/OUTPUTS/openbind_xx01zvns2b_c2_elabs_1LOUTNY.sdf', '/opt/xchem-fragalysis-2/maxwin/BulkDock/OUTPUTS/openbind_xx01zvns2b_c2_elabs_1LSYIIV.sdf']

>  <tags>  (579) 
syndirella_placed,openbind_xx01zvns2b_c2_elabs,openbind_xx01zvns2b_c2_elabs_scored_6.2plus,syndirella_product,openbind_xx01zvns2b_c2_elabs_scored,openbind_xx01zvns2b_c2_elabs_scored_top80percent,BulkDock Fragalysis export

>  <subsites>  (579) 
1 - Z4590/B/203/1

>  <smiles>  (579) 
CCCN1Cc2ccc(NC(=O)c3cc(C4CC4)nc4c3cnn4C(C)C)cc2C1

>  <HIPPO Pose ID>  (579) 
125325

>  <energy_score>  (579) 
-34.67316

>  <inchikey>  (579) 
MGTWBHJRAZUHOQ-UHFFFAOYSA-N

>  <gnina_score_min>  (579) 
6.392

>  <gnina_score>  (579) 
6.352

>  <ref_mols>  (579) 
Z3559a

>  <HIPPO Compound ID>  (579) 
178259

>  <distance_score>  (579) 
0.549938

>  <rmsd(smina/fragmenstein)>  (579) 
0.229

>  <ref_pdb>  (579) 
Z3559a

>  <inspiration_score>  (579) 
None

$$$$
P125326
     RDKit          3D

 30 34  0  0  0  0  0  0  0  0999 V2000
  -10.6705    2.6395   -5.3773 C   0  0  0  0  0  0  0  0  0  0  0  0
   -9.8762    1.8907   -6.4247 C   0  0  0  0  0  0  0  0  0  0  0  0
   -9.4607    2.7369   -7.5126 N   0  0  0  0  0  0  0  0  0  0  0  0
   -8.6485    3.9222   -7.3291 C   0  0  0  0  0  0  0  0  0  0  0  0
   -8.2608    4.2598   -8.7281 C   0  0  0  0  0  0  0  0  0  0  0  0
   -7.5930    5.3549   -9.2325 C   0  0  0  0  0  0  0  0  0  0  0  0
   -7.3620    5.4007  -10.6139 C   0  0  0  0  0  0  0  0  0  0  0  0
   -7.7821    4.3565  -11.4620 C   0  0  0  0  0  0  0  0  0  0  0  0
   -7.5234    4.3862  -12.8258 N   0  0  0  0  0  0  0  0  0  0  0  0
   -6.9563    5.5130  -13.7140 C   0  0  0  0  0  0  0  0  0  0  0  0
   -6.5453    6.5671  -13.4281 O   0  0  0  0  0  0  0  0  0  0  0  0
   -6.9394    5.1261  -15.1432 C   0  0  0  0  0  0  0  0  0  0  0  0
   -7.9989    4.4677  -15.7730 C   0  0  0  0  0  0  0  0  0  0  0  0
   -7.9316    4.1908  -17.1429 C   0  0  0  0  0  0  0  0  0  0  0  0
   -8.9983    3.3177  -17.7535 C   0  0  0  0  0  0  0  0  0  0  0  0
   -8.9654    2.9735  -19.2173 C   0  0  0  0  0  0  0  0  0  0  0  0
  -10.0464    3.8661  -18.6843 C   0  0  0  0  0  0  0  0  0  0  0  0
   -6.9140    4.6203  -17.9297 N   0  0  0  0  0  0  0  0  0  0  0  0
   -5.9185    5.2522  -17.2871 C   0  0  0  0  0  0  0  0  0  0  0  0
   -5.8465    5.5033  -15.9288 C   0  0  0  0  0  0  0  0  0  0  0  0
   -4.6040    6.1394  -15.7496 C   0  0  0  0  0  0  0  0  0  0  0  0
   -3.9479    6.3249  -16.8974 N   0  0  0  0  0  0  0  0  0  0  0  0
   -4.8001    5.8358  -17.8351 N   0  0  0  0  0  0  0  0  0  0  0  0
   -4.5796    6.2157  -19.2248 C   0  0  0  0  0  0  0  0  0  0  0  0
   -5.6122    7.2399  -19.6790 C   0  0  0  0  0  0  0  0  0  0  0  0
   -4.4867    5.0569  -20.2034 C   0  0  0  0  0  0  0  0  0  0  0  0
   -8.4608    3.2589  -10.9482 C   0  0  0  0  0  0  0  0  0  0  0  0
   -8.6913    3.2536   -9.5899 C   0  0  0  0  0  0  0  0  0  0  0  0
   -9.4430    2.2781   -8.8138 C   0  0  0  0  0  0  0  0  0  0  0  0
   -9.9662    1.2909   -9.2832 O   0  0  0  0  0  0  0  0  0  0  0  0
  1  2  1  0
  2  3  1  0
  3  4  1  0
  4  5  1  0
  5  6  2  0
  6  7  1  0
  7  8  2  0
  8  9  1  0
  9 10  1  0
 10 11  2  0
 10 12  1  0
 12 13  2  0
 13 14  1  0
 14 15  1  0
 15 16  1  0
 16 17  1  0
 14 18  2  0
 18 19  1  0
 19 20  2  0
 20 21  1  0
 21 22  2  0
 22 23  1  0
 23 24  1  0
 24 25  1  0
 24 26  1  0
  8 27  1  0
 27 28  2  0
 28 29  1  0
 29 30  2  0
 29  3  1  0
 28  5  1  0
 20 12  1  0
 17 15  1  0
 23 19  1  0
M  END
>  <name>  (580) 
P125326

>  <alias>  (580) 
None

>  <smina_score_min>  (580) 
-8.702

>  <exports>  (580) 
['/opt/xchem-fragalysis-2/maxwin/BulkDock/OUTPUTS/openbind_xx01zvns2b_c2_elabs_1LOUTNY.sdf', '/opt/xchem-fragalysis-2/maxwin/BulkDock/OUTPUTS/openbind_xx01zvns2b_c2_elabs_1LSYIIV.sdf']

>  <tags>  (580) 
syndirella_placed,openbind_xx01zvns2b_c2_elabs,openbind_xx01zvns2b_c2_elabs_scored_6.2plus,syndirella_product,openbind_xx01zvns2b_c2_elabs_scored,openbind_xx01zvns2b_c2_elabs_scored_top80percent,BulkDock Fragalysis export

>  <subsites>  (580) 
1 - Z4590/B/203/1

>  <smiles>  (580) 
CCN1Cc2ccc(NC(=O)c3cc(C4CC4)nc4c3cnn4C(C)C)cc2C1=O

>  <HIPPO Pose ID>  (580) 
125326

>  <energy_score>  (580) 
-44.530658

>  <inchikey>  (580) 
SHUPTJLBKASVCU-UHFFFAOYSA-N

>  <gnina_score_min>  (580) 
6.219

>  <gnina_score>  (580) 
6.273

>  <ref_mols>  (580) 
Z3559a

>  <HIPPO Compound ID>  (580) 
178258

>  <distance_score>  (580) 
0.636886

>  <rmsd(smina/fragmenstein)>  (580) 
0.397

>  <ref_pdb>  (580) 
Z3559a

>  <inspiration_score>  (580) 
None

$$$$
P125328
     RDKit          3D

 30 34  0  0  0  0  0  0  0  0999 V2000
  -10.8293    2.9662   -5.4694 C   0  0  0  0  0  0  0  0  0  0  0  0
   -9.5882    2.3077   -6.0368 C   0  0  0  0  0  0  0  0  0  0  0  0
   -9.1615    2.9197   -7.2669 N   0  0  0  0  0  0  0  0  0  0  0  0
   -9.1621    2.2065   -8.5353 C   0  0  0  0  0  0  0  0  0  0  0  0
   -8.5837    3.2254   -9.4614 C   0  0  0  0  0  0  0  0  0  0  0  0
   -8.4221    3.1951  -10.8367 C   0  0  0  0  0  0  0  0  0  0  0  0
   -7.8553    4.3176  -11.4542 C   0  0  0  0  0  0  0  0  0  0  0  0
   -7.6915    4.3305  -12.8361 N   0  0  0  0  0  0  0  0  0  0  0  0
   -6.9448    5.3299  -13.7494 C   0  0  0  0  0  0  0  0  0  0  0  0
   -6.4159    6.3395  -13.4938 O   0  0  0  0  0  0  0  0  0  0  0  0
   -6.9936    4.9382  -15.1752 C   0  0  0  0  0  0  0  0  0  0  0  0
   -8.1510    4.4303  -15.7710 C   0  0  0  0  0  0  0  0  0  0  0  0
   -8.2078    4.2675  -17.1583 C   0  0  0  0  0  0  0  0  0  0  0  0
   -9.4987    3.7857  -17.7834 C   0  0  0  0  0  0  0  0  0  0  0  0
   -9.7487    3.9339  -19.2603 C   0  0  0  0  0  0  0  0  0  0  0  0
   -9.4835    2.5761  -18.6825 C   0  0  0  0  0  0  0  0  0  0  0  0
   -7.1758    4.5968  -17.9762 N   0  0  0  0  0  0  0  0  0  0  0  0
   -6.0755    5.0637  -17.3655 C   0  0  0  0  0  0  0  0  0  0  0  0
   -5.9076    5.2431  -16.0044 C   0  0  0  0  0  0  0  0  0  0  0  0
   -4.6024    5.7569  -15.8736 C   0  0  0  0  0  0  0  0  0  0  0  0
   -3.9817    5.9057  -17.0481 N   0  0  0  0  0  0  0  0  0  0  0  0
   -4.9264    5.5385  -17.9560 N   0  0  0  0  0  0  0  0  0  0  0  0
   -4.7433    5.9674  -19.3385 C   0  0  0  0  0  0  0  0  0  0  0  0
   -5.5299    7.2489  -19.5963 C   0  0  0  0  0  0  0  0  0  0  0  0
   -5.0445    4.9296  -20.4160 C   0  0  0  0  0  0  0  0  0  0  0  0
   -7.4680    5.4407  -10.6958 C   0  0  0  0  0  0  0  0  0  0  0  0
   -7.6355    5.4662   -9.3142 C   0  0  0  0  0  0  0  0  0  0  0  0
   -8.1902    4.3487   -8.7333 C   0  0  0  0  0  0  0  0  0  0  0  0
   -8.5135    4.1331   -7.3247 C   0  0  0  0  0  0  0  0  0  0  0  0
   -8.2554    4.9121   -6.4254 O   0  0  0  0  0  0  0  0  0  0  0  0
  1  2  1  0
  2  3  1  0
  3  4  1  0
  4  5  1  0
  5  6  2  0
  6  7  1  0
  7  8  1  0
  8  9  1  0
  9 10  2  0
  9 11  1  0
 11 12  2  0
 12 13  1  0
 13 14  1  0
 14 15  1  0
 15 16  1  0
 13 17  2  0
 17 18  1  0
 18 19  2  0
 19 20  1  0
 20 21  2  0
 21 22  1  0
 22 23  1  0
 23 24  1  0
 23 25  1  0
  7 26  2  0
 26 27  1  0
 27 28  2  0
 28 29  1  0
 29 30  2  0
 29  3  1  0
 28  5  1  0
 19 11  1  0
 16 14  1  0
 22 18  1  0
M  END
>  <name>  (581) 
P125328

>  <alias>  (581) 
None

>  <smina_score_min>  (581) 
-9.22

>  <exports>  (581) 
['/opt/xchem-fragalysis-2/maxwin/BulkDock/OUTPUTS/openbind_xx01zvns2b_c2_elabs_1LOUTNY.sdf', '/opt/xchem-fragalysis-2/maxwin/BulkDock/OUTPUTS/openbind_xx01zvns2b_c2_elabs_1LSYIIV.sdf']

>  <tags>  (581) 
syndirella_placed,openbind_xx01zvns2b_c2_elabs,openbind_xx01zvns2b_c2_elabs_scored_6.2plus,syndirella_product,openbind_xx01zvns2b_c2_elabs_scored,openbind_xx01zvns2b_c2_elabs_scored_top80percent,BulkDock Fragalysis export

>  <subsites>  (581) 
1 - Z4590/B/203/1

>  <smiles>  (581) 
CCN1Cc2cc(NC(=O)c3cc(C4CC4)nc4c3cnn4C(C)C)ccc2C1=O

>  <HIPPO Pose ID>  (581) 
125328

>  <energy_score>  (581) 
-29.672603

>  <inchikey>  (581) 
RGCYOVBPWSZNHQ-UHFFFAOYSA-N

>  <gnina_score_min>  (581) 
6.358

>  <gnina_score>  (581) 
6.3

>  <ref_mols>  (581) 
Z3559a

>  <HIPPO Compound ID>  (581) 
178254

>  <distance_score>  (581) 
0.487631

>  <rmsd(smina/fragmenstein)>  (581) 
0.332

>  <ref_pdb>  (581) 
Z3559a

>  <inspiration_score>  (581) 
None

$$$$
P125330
     RDKit          3D

 30 34  0  0  0  0  0  0  0  0999 V2000
   -4.6862    6.7115  -21.1513 C   0  0  0  0  0  0  0  0  0  0  0  0
   -5.0712    6.7497  -19.6817 C   0  0  0  0  0  0  0  0  0  0  0  0
   -4.6866    5.4549  -18.9727 C   0  0  0  0  0  0  0  0  0  0  0  0
   -5.0340    5.4804  -17.5657 N   0  0  0  0  0  0  0  0  0  0  0  0
   -4.1878    6.0291  -16.6628 N   0  0  0  0  0  0  0  0  0  0  0  0
   -4.8707    5.9414  -15.5136 C   0  0  0  0  0  0  0  0  0  0  0  0
   -6.1384    5.3394  -15.6701 C   0  0  0  0  0  0  0  0  0  0  0  0
   -7.2607    5.0316  -14.8906 C   0  0  0  0  0  0  0  0  0  0  0  0
   -7.3284    5.5101  -13.4901 C   0  0  0  0  0  0  0  0  0  0  0  0
   -6.9641    6.6018  -13.2866 O   0  0  0  0  0  0  0  0  0  0  0  0
   -7.9281    4.4562  -12.5269 N   0  0  0  0  0  0  0  0  0  0  0  0
   -8.1098    4.4921  -11.1412 C   0  0  0  0  0  0  0  0  0  0  0  0
   -7.9080    5.6864  -10.4311 C   0  0  0  0  0  0  0  0  0  0  0  0
   -8.0757    5.7423   -9.0426 C   0  0  0  0  0  0  0  0  0  0  0  0
   -8.4433    4.5900   -8.3673 C   0  0  0  0  0  0  0  0  0  0  0  0
   -8.6446    3.4038   -9.0727 C   0  0  0  0  0  0  0  0  0  0  0  0
   -8.4934    3.3355  -10.4566 C   0  0  0  0  0  0  0  0  0  0  0  0
   -9.0255    2.3154   -8.1232 C   0  0  0  0  0  0  0  0  0  0  0  0
   -8.8949    2.8995   -6.7615 N   0  0  0  0  0  0  0  0  0  0  0  0
  -10.0054    2.4982   -5.9147 C   0  0  0  0  0  0  0  0  0  0  0  0
   -8.5879    4.3494   -6.8795 C   0  0  0  0  0  0  0  0  0  0  0  0
   -9.5731    5.3012   -6.1715 C   0  0  0  0  0  0  0  0  0  0  0  0
   -7.2185    4.6210   -6.2242 C   0  0  0  0  0  0  0  0  0  0  0  0
   -8.3635    4.4574  -15.5357 C   0  0  0  0  0  0  0  0  0  0  0  0
   -8.3297    4.2264  -16.9183 C   0  0  0  0  0  0  0  0  0  0  0  0
   -9.5764    3.7553  -17.6372 C   0  0  0  0  0  0  0  0  0  0  0  0
   -9.7426    3.9810  -19.1210 C   0  0  0  0  0  0  0  0  0  0  0  0
   -9.4987    2.5971  -18.6011 C   0  0  0  0  0  0  0  0  0  0  0  0
   -7.2388    4.4945  -17.6743 N   0  0  0  0  0  0  0  0  0  0  0  0
   -6.2084    5.0448  -17.0180 C   0  0  0  0  0  0  0  0  0  0  0  0
  1  2  1  0
  2  3  1  0
  3  4  1  0
  4  5  1  0
  5  6  2  0
  6  7  1  0
  7  8  2  0
  8  9  1  0
  9 10  2  0
  9 11  1  0
 11 12  1  0
 12 13  2  0
 13 14  1  0
 14 15  2  0
 15 16  1  0
 16 17  2  0
 16 18  1  0
 18 19  1  0
 19 20  1  0
 19 21  1  0
 21 22  1  0
 21 23  1  0
  8 24  1  0
 24 25  2  0
 25 26  1  0
 26 27  1  0
 27 28  1  0
 25 29  1  0
 29 30  2  0
 30  4  1  0
 30  7  1  0
 17 12  1  0
 28 26  1  0
 21 15  1  0
M  END
>  <name>  (582) 
P125330

>  <alias>  (582) 
None

>  <smina_score_min>  (582) 
-8.33

>  <exports>  (582) 
['/opt/xchem-fragalysis-2/maxwin/BulkDock/OUTPUTS/openbind_xx01zvns2b_c2_elabs_1LOUTNY.sdf', '/opt/xchem-fragalysis-2/maxwin/BulkDock/OUTPUTS/openbind_xx01zvns2b_c2_elabs_1LSYIIV.sdf']

>  <tags>  (582) 
syndirella_placed,openbind_xx01zvns2b_c2_elabs,openbind_xx01zvns2b_c2_elabs_scored_6.2plus,syndirella_product,openbind_xx01zvns2b_c2_elabs_scored,openbind_xx01zvns2b_c2_elabs_scored_top80percent,BulkDock Fragalysis export

>  <subsites>  (582) 
1 - Z4590/B/203/1

>  <smiles>  (582) 
CCCn1ncc2c(C(=O)Nc3ccc4c(c3)CN(C)C4(C)C)cc(C3CC3)nc21

>  <HIPPO Pose ID>  (582) 
125330

>  <energy_score>  (582) 
-41.865756

>  <inchikey>  (582) 
CWDBPINVXATFJO-UHFFFAOYSA-N

>  <gnina_score_min>  (582) 
6.247

>  <gnina_score>  (582) 
6.272

>  <ref_mols>  (582) 
Z3559a

>  <HIPPO Compound ID>  (582) 
178290

>  <distance_score>  (582) 
0.482643

>  <rmsd(smina/fragmenstein)>  (582) 
0.541

>  <ref_pdb>  (582) 
Z3559a

>  <inspiration_score>  (582) 
None

$$$$
P125333
     RDKit          3D

 30 34  0  0  0  0  0  0  0  0999 V2000
   -4.4426    5.0815  -20.3075 C   0  0  0  0  0  0  0  0  0  0  0  0
   -4.9189    6.2146  -19.4279 C   0  0  0  0  0  0  0  0  0  0  0  0
   -4.9906    5.8942  -18.0177 N   0  0  0  0  0  0  0  0  0  0  0  0
   -4.0991    6.4362  -17.1527 N   0  0  0  0  0  0  0  0  0  0  0  0
   -4.6631    6.2266  -15.9569 C   0  0  0  0  0  0  0  0  0  0  0  0
   -5.8878    5.5354  -16.0452 C   0  0  0  0  0  0  0  0  0  0  0  0
   -6.9188    5.1184  -15.2011 C   0  0  0  0  0  0  0  0  0  0  0  0
   -6.8927    5.5007  -13.7727 C   0  0  0  0  0  0  0  0  0  0  0  0
   -6.5025    6.5623  -13.4866 O   0  0  0  0  0  0  0  0  0  0  0  0
   -7.4375    4.3629  -12.8852 N   0  0  0  0  0  0  0  0  0  0  0  0
   -7.6955    4.3275  -11.5220 C   0  0  0  0  0  0  0  0  0  0  0  0
   -7.4658    5.4452  -10.7016 C   0  0  0  0  0  0  0  0  0  0  0  0
   -7.7497    5.4002   -9.3346 C   0  0  0  0  0  0  0  0  0  0  0  0
   -8.2727    4.2302   -8.8248 C   0  0  0  0  0  0  0  0  0  0  0  0
   -8.5008    3.1208   -9.6424 C   0  0  0  0  0  0  0  0  0  0  0  0
   -8.2141    3.1469  -10.9905 C   0  0  0  0  0  0  0  0  0  0  0  0
   -9.0854    2.0184   -8.8239 C   0  0  0  0  0  0  0  0  0  0  0  0
   -9.5627    2.7218   -7.6261 N   0  0  0  0  0  0  0  0  0  0  0  0
   -9.6902    1.8582   -6.4627 C   0  0  0  0  0  0  0  0  0  0  0  0
  -10.2754    2.5496   -5.2293 C   0  0  0  0  0  0  0  0  0  0  0  0
  -11.3252    3.3470   -5.5563 F   0  0  0  0  0  0  0  0  0  0  0  0
   -9.3516    3.3642   -4.6469 F   0  0  0  0  0  0  0  0  0  0  0  0
   -8.7020    3.8984   -7.4326 C   0  0  0  0  0  0  0  0  0  0  0  0
   -7.9969    4.4328  -15.7742 C   0  0  0  0  0  0  0  0  0  0  0  0
   -8.0011    4.1587  -17.1446 C   0  0  0  0  0  0  0  0  0  0  0  0
   -9.0785    3.2779  -17.7120 C   0  0  0  0  0  0  0  0  0  0  0  0
  -10.1626    3.8199  -18.6059 C   0  0  0  0  0  0  0  0  0  0  0  0
   -9.0934    2.9365  -19.1764 C   0  0  0  0  0  0  0  0  0  0  0  0
   -7.0389    4.6068  -17.9808 N   0  0  0  0  0  0  0  0  0  0  0  0
   -6.0379    5.2745  -17.3932 C   0  0  0  0  0  0  0  0  0  0  0  0
  1  2  1  0
  2  3  1  0
  3  4  1  0
  4  5  2  0
  5  6  1  0
  6  7  2  0
  7  8  1  0
  8  9  2  0
  8 10  1  0
 10 11  1  0
 11 12  2  0
 12 13  1  0
 13 14  2  0
 14 15  1  0
 15 16  2  0
 15 17  1  0
 17 18  1  0
 18 19  1  0
 19 20  1  0
 20 21  1  0
 20 22  1  0
 18 23  1  0
  7 24  1  0
 24 25  2  0
 25 26  1  0
 26 27  1  0
 27 28  1  0
 25 29  1  0
 29 30  2  0
 30  3  1  0
 30  6  1  0
 16 11  1  0
 28 26  1  0
 23 14  1  0
M  END
>  <name>  (583) 
P125333

>  <alias>  (583) 
None

>  <smina_score_min>  (583) 
-8.88

>  <exports>  (583) 
['/opt/xchem-fragalysis-2/maxwin/BulkDock/OUTPUTS/openbind_xx01zvns2b_c2_elabs_1LOUTNY.sdf', '/opt/xchem-fragalysis-2/maxwin/BulkDock/OUTPUTS/openbind_xx01zvns2b_c2_elabs_1LSYIIV.sdf']

>  <tags>  (583) 
syndirella_placed,openbind_xx01zvns2b_c2_elabs,openbind_xx01zvns2b_c2_elabs_scored_6.2plus,syndirella_product,openbind_xx01zvns2b_c2_elabs_scored,openbind_xx01zvns2b_c2_elabs_scored_top80percent,BulkDock Fragalysis export

>  <subsites>  (583) 
1 - Z4590/B/203/1

>  <smiles>  (583) 
CCn1ncc2c(C(=O)Nc3ccc4c(c3)CN(CC(F)F)C4)cc(C3CC3)nc21

>  <HIPPO Pose ID>  (583) 
125333

>  <energy_score>  (583) 
-43.079729

>  <inchikey>  (583) 
ABGCFOVKSNCKEN-UHFFFAOYSA-N

>  <gnina_score_min>  (583) 
6.346

>  <gnina_score>  (583) 
6.296

>  <ref_mols>  (583) 
Z3559a

>  <HIPPO Compound ID>  (583) 
178297

>  <distance_score>  (583) 
0.649723

>  <rmsd(smina/fragmenstein)>  (583) 
0.46

>  <ref_pdb>  (583) 
Z3559a

>  <inspiration_score>  (583) 
None

$$$$
P125335
     RDKit          3D

 30 34  0  0  0  0  0  0  0  0999 V2000
   -9.8280    3.7431   -4.4148 C   0  0  0  0  0  0  0  0  0  0  0  0
  -10.5167    2.6521   -5.2212 C   0  0  0  0  0  0  0  0  0  0  0  0
   -9.6640    2.0198   -6.3268 C   0  0  0  0  0  0  0  0  0  0  0  0
   -9.5771    2.8510   -7.5100 N   0  0  0  0  0  0  0  0  0  0  0  0
   -8.6650    3.9986   -7.4076 C   0  0  0  0  0  0  0  0  0  0  0  0
   -8.2925    4.2711   -8.8259 C   0  0  0  0  0  0  0  0  0  0  0  0
   -7.7855    5.4214   -9.3904 C   0  0  0  0  0  0  0  0  0  0  0  0
   -7.6136    5.4377  -10.7727 C   0  0  0  0  0  0  0  0  0  0  0  0
   -7.9363    4.3130  -11.5533 C   0  0  0  0  0  0  0  0  0  0  0  0
   -7.7986    4.3480  -12.9329 N   0  0  0  0  0  0  0  0  0  0  0  0
   -7.3232    5.4805  -13.8628 C   0  0  0  0  0  0  0  0  0  0  0  0
   -7.0451    6.5880  -13.6248 O   0  0  0  0  0  0  0  0  0  0  0  0
   -7.2325    5.0263  -15.2591 C   0  0  0  0  0  0  0  0  0  0  0  0
   -8.2798    4.3601  -15.9065 C   0  0  0  0  0  0  0  0  0  0  0  0
   -8.1627    4.0623  -17.2648 C   0  0  0  0  0  0  0  0  0  0  0  0
   -9.2682    3.3588  -18.0094 C   0  0  0  0  0  0  0  0  0  0  0  0
  -10.6233    3.9786  -18.2521 C   0  0  0  0  0  0  0  0  0  0  0  0
   -9.6264    3.9349  -19.3565 C   0  0  0  0  0  0  0  0  0  0  0  0
   -7.0731    4.3967  -17.9998 N   0  0  0  0  0  0  0  0  0  0  0  0
   -6.1059    5.0414  -17.3347 C   0  0  0  0  0  0  0  0  0  0  0  0
   -6.0978    5.3714  -15.9970 C   0  0  0  0  0  0  0  0  0  0  0  0
   -4.8618    6.0224  -15.8010 C   0  0  0  0  0  0  0  0  0  0  0  0
   -4.1426    6.1178  -16.9262 N   0  0  0  0  0  0  0  0  0  0  0  0
   -4.9452    5.5430  -17.8533 N   0  0  0  0  0  0  0  0  0  0  0  0
   -4.5741    5.5527  -19.2523 C   0  0  0  0  0  0  0  0  0  0  0  0
   -5.1593    6.7347  -20.0240 C   0  0  0  0  0  0  0  0  0  0  0  0
   -4.5610    8.0756  -19.6263 C   0  0  0  0  0  0  0  0  0  0  0  0
   -8.4148    3.1437  -10.9628 C   0  0  0  0  0  0  0  0  0  0  0  0
   -8.5962    3.1474   -9.5960 C   0  0  0  0  0  0  0  0  0  0  0  0
   -9.1524    2.0871   -8.7028 C   0  0  0  0  0  0  0  0  0  0  0  0
  1  2  1  0
  2  3  1  0
  3  4  1  0
  4  5  1  0
  5  6  1  0
  6  7  2  0
  7  8  1  0
  8  9  2  0
  9 10  1  0
 10 11  1  0
 11 12  2  0
 11 13  1  0
 13 14  2  0
 14 15  1  0
 15 16  1  0
 16 17  1  0
 17 18  1  0
 15 19  2  0
 19 20  1  0
 20 21  2  0
 21 22  1  0
 22 23  2  0
 23 24  1  0
 24 25  1  0
 25 26  1  0
 26 27  1  0
  9 28  1  0
 28 29  2  0
 29 30  1  0
 30  4  1  0
 29  6  1  0
 21 13  1  0
 18 16  1  0
 24 20  1  0
M  END
>  <name>  (584) 
P125335

>  <alias>  (584) 
None

>  <smina_score_min>  (584) 
-8.858

>  <exports>  (584) 
['/opt/xchem-fragalysis-2/maxwin/BulkDock/OUTPUTS/openbind_xx01zvns2b_c2_elabs_1LOUTNY.sdf', '/opt/xchem-fragalysis-2/maxwin/BulkDock/OUTPUTS/openbind_xx01zvns2b_c2_elabs_1LSYIIV.sdf']

>  <tags>  (584) 
syndirella_placed,openbind_xx01zvns2b_c2_elabs,openbind_xx01zvns2b_c2_elabs_scored_6.2plus,syndirella_product,openbind_xx01zvns2b_c2_elabs_scored,openbind_xx01zvns2b_c2_elabs_scored_top80percent,BulkDock Fragalysis export

>  <subsites>  (584) 
1 - Z4590/B/203/1

>  <smiles>  (584) 
CCCN1Cc2ccc(NC(=O)c3cc(C4CC4)nc4c3cnn4CCC)cc2C1

>  <HIPPO Pose ID>  (584) 
125335

>  <energy_score>  (584) 
-48.869762

>  <inchikey>  (584) 
RPAQZGLHKIEVPV-UHFFFAOYSA-N

>  <gnina_score_min>  (584) 
6.578

>  <gnina_score>  (584) 
6.45

>  <ref_mols>  (584) 
Z3559a

>  <HIPPO Compound ID>  (584) 
178292

>  <distance_score>  (584) 
0.635801

>  <rmsd(smina/fragmenstein)>  (584) 
0.712

>  <ref_pdb>  (584) 
Z3559a

>  <inspiration_score>  (584) 
None

$$$$
P125338
     RDKit          3D

 30 34  0  0  0  0  0  0  0  0999 V2000
   -4.5365    8.0006  -19.6019 C   0  0  0  0  0  0  0  0  0  0  0  0
   -5.2468    6.7127  -19.9900 C   0  0  0  0  0  0  0  0  0  0  0  0
   -4.7074    5.4774  -19.2713 C   0  0  0  0  0  0  0  0  0  0  0  0
   -4.9973    5.4668  -17.8527 N   0  0  0  0  0  0  0  0  0  0  0  0
   -4.1001    5.9624  -16.9677 N   0  0  0  0  0  0  0  0  0  0  0  0
   -4.7448    5.8742  -15.7983 C   0  0  0  0  0  0  0  0  0  0  0  0
   -6.0310    5.3073  -15.9237 C   0  0  0  0  0  0  0  0  0  0  0  0
   -7.1274    5.0056  -15.1107 C   0  0  0  0  0  0  0  0  0  0  0  0
   -7.1098    5.4256  -13.6959 C   0  0  0  0  0  0  0  0  0  0  0  0
   -6.6348    6.4631  -13.4482 O   0  0  0  0  0  0  0  0  0  0  0  0
   -7.7823    4.3856  -12.7718 N   0  0  0  0  0  0  0  0  0  0  0  0
   -7.9212    4.3628  -11.3883 C   0  0  0  0  0  0  0  0  0  0  0  0
   -7.5329    5.4853  -10.6300 C   0  0  0  0  0  0  0  0  0  0  0  0
   -7.6697    5.4970   -9.2455 C   0  0  0  0  0  0  0  0  0  0  0  0
   -8.2015    4.3694   -8.6632 C   0  0  0  0  0  0  0  0  0  0  0  0
   -8.6011    3.2483   -9.3920 C   0  0  0  0  0  0  0  0  0  0  0  0
   -8.4597    3.2273  -10.7692 C   0  0  0  0  0  0  0  0  0  0  0  0
   -9.1736    2.2265   -8.4655 C   0  0  0  0  0  0  0  0  0  0  0  0
   -9.1426    2.9283   -7.1911 N   0  0  0  0  0  0  0  0  0  0  0  0
   -9.6141    2.3376   -5.9670 C   0  0  0  0  0  0  0  0  0  0  0  0
  -10.8792    2.9984   -5.4606 C   0  0  0  0  0  0  0  0  0  0  0  0
   -8.5040    4.1455   -7.2516 C   0  0  0  0  0  0  0  0  0  0  0  0
   -8.2447    4.9238   -6.3522 O   0  0  0  0  0  0  0  0  0  0  0  0
   -8.2634    4.4556  -15.7141 C   0  0  0  0  0  0  0  0  0  0  0  0
   -8.2820    4.2312  -17.0944 C   0  0  0  0  0  0  0  0  0  0  0  0
   -9.5574    3.7531  -17.7506 C   0  0  0  0  0  0  0  0  0  0  0  0
   -9.7677    3.9162  -19.2340 C   0  0  0  0  0  0  0  0  0  0  0  0
   -9.5253    2.5521  -18.6606 C   0  0  0  0  0  0  0  0  0  0  0  0
   -7.2196    4.5007  -17.8908 N   0  0  0  0  0  0  0  0  0  0  0  0
   -6.1572    5.0346  -17.2707 C   0  0  0  0  0  0  0  0  0  0  0  0
  1  2  1  0
  2  3  1  0
  3  4  1  0
  4  5  1  0
  5  6  2  0
  6  7  1  0
  7  8  2  0
  8  9  1  0
  9 10  2  0
  9 11  1  0
 11 12  1  0
 12 13  2  0
 13 14  1  0
 14 15  2  0
 15 16  1  0
 16 17  2  0
 16 18  1  0
 18 19  1  0
 19 20  1  0
 20 21  1  0
 19 22  1  0
 22 23  2  0
  8 24  1  0
 24 25  2  0
 25 26  1  0
 26 27  1  0
 27 28  1  0
 25 29  1  0
 29 30  2  0
 30  4  1  0
 30  7  1  0
 17 12  1  0
 28 26  1  0
 22 15  1  0
M  END
>  <name>  (585) 
P125338

>  <alias>  (585) 
None

>  <smina_score_min>  (585) 
-8.973

>  <exports>  (585) 
['/opt/xchem-fragalysis-2/maxwin/BulkDock/OUTPUTS/openbind_xx01zvns2b_c2_elabs_1LOUTNY.sdf', '/opt/xchem-fragalysis-2/maxwin/BulkDock/OUTPUTS/openbind_xx01zvns2b_c2_elabs_1LSYIIV.sdf']

>  <tags>  (585) 
syndirella_placed,openbind_xx01zvns2b_c2_elabs,openbind_xx01zvns2b_c2_elabs_scored_6.2plus,syndirella_product,openbind_xx01zvns2b_c2_elabs_scored,openbind_xx01zvns2b_c2_elabs_scored_top80percent,BulkDock Fragalysis export

>  <subsites>  (585) 
1 - Z4590/B/203/1

>  <smiles>  (585) 
CCCn1ncc2c(C(=O)Nc3ccc4c(c3)CN(CC)C4=O)cc(C3CC3)nc21

>  <HIPPO Pose ID>  (585) 
125338

>  <energy_score>  (585) 
-28.863758

>  <inchikey>  (585) 
HGTNNZWULGBUMU-UHFFFAOYSA-N

>  <gnina_score_min>  (585) 
6.343

>  <gnina_score>  (585) 
6.313

>  <ref_mols>  (585) 
Z3559a

>  <HIPPO Compound ID>  (585) 
178287

>  <distance_score>  (585) 
0.440958

>  <rmsd(smina/fragmenstein)>  (585) 
0.941

>  <ref_pdb>  (585) 
Z3559a

>  <inspiration_score>  (585) 
None

$$$$
P125344
     RDKit          3D

 31 35  0  0  0  0  0  0  0  0999 V2000
   -4.0566    5.5322  -18.7914 C   0  0  0  0  0  0  0  0  0  0  0  0
   -4.7160    6.0854  -17.6263 N   0  0  0  0  0  0  0  0  0  0  0  0
   -3.9727    6.2210  -16.4317 N   0  0  0  0  0  0  0  0  0  0  0  0
   -4.7909    5.9845  -15.3332 C   0  0  0  0  0  0  0  0  0  0  0  0
   -4.5220    6.2187  -14.1725 O   0  0  0  0  0  0  0  0  0  0  0  0
   -6.0155    5.3868  -15.8496 C   0  0  0  0  0  0  0  0  0  0  0  0
   -7.1889    4.9605  -15.2787 C   0  0  0  0  0  0  0  0  0  0  0  0
   -7.5077    5.4041  -13.9122 C   0  0  0  0  0  0  0  0  0  0  0  0
   -7.5816    6.5566  -13.7417 O   0  0  0  0  0  0  0  0  0  0  0  0
   -7.7054    4.2325  -12.9278 N   0  0  0  0  0  0  0  0  0  0  0  0
   -7.9345    4.2340  -11.5505 C   0  0  0  0  0  0  0  0  0  0  0  0
   -7.8437    5.4372  -10.8286 C   0  0  0  0  0  0  0  0  0  0  0  0
   -8.0330    5.4654   -9.4465 C   0  0  0  0  0  0  0  0  0  0  0  0
   -8.3297    4.2782   -8.8066 C   0  0  0  0  0  0  0  0  0  0  0  0
   -8.4366    3.0843   -9.5104 C   0  0  0  0  0  0  0  0  0  0  0  0
   -8.2309    3.0402  -10.8844 C   0  0  0  0  0  0  0  0  0  0  0  0
   -8.8053    1.9830   -8.5644 C   0  0  0  0  0  0  0  0  0  0  0  0
   -8.8610    2.6127   -7.2167 N   0  0  0  0  0  0  0  0  0  0  0  0
  -10.0728    2.2342   -6.4742 C   0  0  0  0  0  0  0  0  0  0  0  0
  -10.4813    3.0080   -5.2114 C   0  0  0  0  0  0  0  0  0  0  0  0
  -10.9158    4.2594   -5.5239 F   0  0  0  0  0  0  0  0  0  0  0  0
   -9.4858    3.1611   -4.3132 F   0  0  0  0  0  0  0  0  0  0  0  0
  -11.5235    2.4046   -4.5908 F   0  0  0  0  0  0  0  0  0  0  0  0
   -8.6119    4.0512   -7.3615 C   0  0  0  0  0  0  0  0  0  0  0  0
   -8.1632    4.4059  -16.1164 C   0  0  0  0  0  0  0  0  0  0  0  0
   -7.9132    4.3317  -17.5016 C   0  0  0  0  0  0  0  0  0  0  0  0
   -8.8764    3.8124  -18.5355 C   0  0  0  0  0  0  0  0  0  0  0  0
  -10.3517    3.6818  -18.3287 C   0  0  0  0  0  0  0  0  0  0  0  0
   -9.4807    2.4512  -18.3732 C   0  0  0  0  0  0  0  0  0  0  0  0
   -6.7622    4.8165  -18.0353 N   0  0  0  0  0  0  0  0  0  0  0  0
   -5.8635    5.3614  -17.2161 C   0  0  0  0  0  0  0  0  0  0  0  0
  1  2  1  0
  2  3  1  0
  3  4  1  0
  4  5  2  0
  4  6  1  0
  6  7  2  0
  7  8  1  0
  8  9  2  0
  8 10  1  0
 10 11  1  0
 11 12  2  0
 12 13  1  0
 13 14  2  0
 14 15  1  0
 15 16  2  0
 15 17  1  0
 17 18  1  0
 18 19  1  0
 19 20  1  0
 20 21  1  0
 20 22  1  0
 20 23  1  0
 18 24  1  0
  7 25  1  0
 25 26  2  0
 26 27  1  0
 27 28  1  0
 28 29  1  0
 26 30  1  0
 30 31  2  0
 31  2  1  0
 31  6  1  0
 16 11  1  0
 29 27  1  0
 24 14  1  0
M  END
>  <name>  (586) 
P125344

>  <alias>  (586) 
None

>  <smina_score_min>  (586) 
-10.163

>  <exports>  (586) 
['/opt/xchem-fragalysis-2/maxwin/BulkDock/OUTPUTS/openbind_xx01zvns2b_c2_elabs_1LOUTNY.sdf', '/opt/xchem-fragalysis-2/maxwin/BulkDock/OUTPUTS/openbind_xx01zvns2b_c2_elabs_1LSYIIV.sdf']

>  <tags>  (586) 
syndirella_placed,openbind_xx01zvns2b_c2_elabs,openbind_xx01zvns2b_c2_elabs_scored_6.2plus,syndirella_product,openbind_xx01zvns2b_c2_elabs_scored,openbind_xx01zvns2b_c2_elabs_scored_top80percent,BulkDock Fragalysis export

>  <subsites>  (586) 
1 - Z4590/B/203/1

>  <smiles>  (586) 
Cn1[nH]c(=O)c2c(C(=O)Nc3ccc4c(c3)CN(CC(F)(F)F)C4)cc(C3CC3)nc21

>  <HIPPO Pose ID>  (586) 
125344

>  <energy_score>  (586) 
-25.153166

>  <inchikey>  (586) 
UCXIYECLWOBDEZ-UHFFFAOYSA-N

>  <gnina_score_min>  (586) 
6.3

>  <gnina_score>  (586) 
6.355

>  <ref_mols>  (586) 
Z3559a

>  <HIPPO Compound ID>  (586) 
178781

>  <distance_score>  (586) 
0.683629

>  <rmsd(smina/fragmenstein)>  (586) 
0.673

>  <ref_pdb>  (586) 
Z3559a

>  <inspiration_score>  (586) 
None

$$$$
P125355
     RDKit          3D

 31 35  0  0  0  0  0  0  0  0999 V2000
   -4.1401    6.2033  -14.3407 C   0  0  0  0  0  0  0  0  0  0  0  0
   -4.6632    5.7959  -15.6694 C   0  0  0  0  0  0  0  0  0  0  0  0
   -3.8644    5.8905  -16.7472 N   0  0  0  0  0  0  0  0  0  0  0  0
   -4.6470    5.4557  -17.7571 N   0  0  0  0  0  0  0  0  0  0  0  0
   -4.1731    5.5059  -19.1162 C   0  0  0  0  0  0  0  0  0  0  0  0
   -5.8819    5.0527  -17.3537 C   0  0  0  0  0  0  0  0  0  0  0  0
   -6.8409    4.5694  -18.1395 N   0  0  0  0  0  0  0  0  0  0  0  0
   -8.0218    4.3150  -17.5414 C   0  0  0  0  0  0  0  0  0  0  0  0
   -9.0596    3.8692  -18.5338 C   0  0  0  0  0  0  0  0  0  0  0  0
   -9.5973    2.4768  -18.4034 C   0  0  0  0  0  0  0  0  0  0  0  0
  -10.5103    3.6695  -18.2627 C   0  0  0  0  0  0  0  0  0  0  0  0
   -8.2407    4.5208  -16.1663 C   0  0  0  0  0  0  0  0  0  0  0  0
   -7.2015    5.0414  -15.3858 C   0  0  0  0  0  0  0  0  0  0  0  0
   -7.3729    5.5975  -14.0322 C   0  0  0  0  0  0  0  0  0  0  0  0
   -7.1069    6.7328  -13.9431 O   0  0  0  0  0  0  0  0  0  0  0  0
   -7.7731    4.5727  -12.9441 N   0  0  0  0  0  0  0  0  0  0  0  0
   -7.8349    4.7028  -11.5537 C   0  0  0  0  0  0  0  0  0  0  0  0
   -7.1073    5.7878  -11.0220 C   0  0  0  0  0  0  0  0  0  0  0  0
   -6.8241    5.8806   -9.6725 C   0  0  0  0  0  0  0  0  0  0  0  0
   -7.3551    4.9177   -8.8569 C   0  0  0  0  0  0  0  0  0  0  0  0
   -8.2325    3.9404   -9.3221 C   0  0  0  0  0  0  0  0  0  0  0  0
   -8.4280    3.7673  -10.6932 C   0  0  0  0  0  0  0  0  0  0  0  0
   -8.7736    3.2276   -8.1095 C   0  0  0  0  0  0  0  0  0  0  0  0
   -8.2712    4.0022   -6.9040 N   0  0  0  0  0  0  0  0  0  0  0  0
   -9.1555    5.0622   -6.3957 C   0  0  0  0  0  0  0  0  0  0  0  0
  -10.4013    4.6866   -5.6090 C   0  0  0  0  0  0  0  0  0  0  0  0
  -10.2679    3.5814   -4.5691 C   0  0  0  0  0  0  0  0  0  0  0  0
  -10.4838    2.2254   -5.2358 C   0  0  0  0  0  0  0  0  0  0  0  0
   -8.9835    3.6764   -3.7480 C   0  0  0  0  0  0  0  0  0  0  0  0
   -7.0817    4.7113   -7.4143 C   0  0  0  0  0  0  0  0  0  0  0  0
   -5.9568    5.2923  -16.0012 C   0  0  0  0  0  0  0  0  0  0  0  0
  1  2  1  0
  2  3  2  0
  3  4  1  0
  4  5  1  0
  4  6  1  0
  6  7  2  0
  7  8  1  0
  8  9  1  0
  9 10  1  0
 10 11  1  0
  8 12  2  0
 12 13  1  0
 13 14  1  0
 14 15  2  0
 14 16  1  0
 16 17  1  0
 17 18  2  0
 18 19  1  0
 19 20  2  0
 20 21  1  0
 21 22  2  0
 21 23  1  0
 23 24  1  0
 24 25  1  0
 25 26  1  0
 26 27  1  0
 27 28  1  0
 27 29  1  0
 24 30  1  0
 13 31  2  0
 31  2  1  0
 31  6  1  0
 11  9  1  0
 22 17  1  0
 30 20  1  0
M  END
>  <name>  (587) 
P125355

>  <alias>  (587) 
None

>  <smina_score_min>  (587) 
-8.328

>  <exports>  (587) 
['/opt/xchem-fragalysis-2/maxwin/BulkDock/OUTPUTS/openbind_xx01zvns2b_c2_elabs_1LOUTNY.sdf', '/opt/xchem-fragalysis-2/maxwin/BulkDock/OUTPUTS/openbind_xx01zvns2b_c2_elabs_1LSYIIV.sdf']

>  <tags>  (587) 
syndirella_placed,openbind_xx01zvns2b_c2_elabs,openbind_xx01zvns2b_c2_elabs_scored_6.2plus,syndirella_product,openbind_xx01zvns2b_c2_elabs_scored,openbind_xx01zvns2b_c2_elabs_scored_top80percent,BulkDock Fragalysis export

>  <subsites>  (587) 
1 - Z4590/B/203/1

>  <smiles>  (587) 
Cc1nn(C)c2nc(C3CC3)cc(C(=O)Nc3ccc4c(c3)CN(CCC(C)C)C4)c12

>  <HIPPO Pose ID>  (587) 
125355

>  <energy_score>  (587) 
-35.896902

>  <inchikey>  (587) 
BWTWAOOZWRERLH-UHFFFAOYSA-N

>  <gnina_score_min>  (587) 
6.37

>  <gnina_score>  (587) 
6.368

>  <ref_mols>  (587) 
Z3559a

>  <HIPPO Compound ID>  (587) 
178844

>  <distance_score>  (587) 
1.063341

>  <rmsd(smina/fragmenstein)>  (587) 
0.611

>  <ref_pdb>  (587) 
Z3559a

>  <inspiration_score>  (587) 
None

$$$$
P125358
     RDKit          3D

 31 35  0  0  0  0  0  0  0  0999 V2000
  -11.5690    2.0314   -5.3199 C   0  0  0  0  0  0  0  0  0  0  0  0
  -10.6827    2.9903   -5.8561 O   0  0  0  0  0  0  0  0  0  0  0  0
   -9.4169    2.3782   -6.0911 C   0  0  0  0  0  0  0  0  0  0  0  0
   -8.9084    2.9319   -7.2925 N   0  0  0  0  0  0  0  0  0  0  0  0
   -8.2162    4.0992   -7.3291 C   0  0  0  0  0  0  0  0  0  0  0  0
   -7.8012    4.8020   -6.4244 O   0  0  0  0  0  0  0  0  0  0  0  0
   -8.0190    4.3899   -8.7393 C   0  0  0  0  0  0  0  0  0  0  0  0
   -7.4458    5.4915   -9.3269 C   0  0  0  0  0  0  0  0  0  0  0  0
   -7.3912    5.4976  -10.7182 C   0  0  0  0  0  0  0  0  0  0  0  0
   -7.8846    4.4126  -11.4768 C   0  0  0  0  0  0  0  0  0  0  0  0
   -7.7639    4.4326  -12.8602 N   0  0  0  0  0  0  0  0  0  0  0  0
   -7.1118    5.4751  -13.7954 C   0  0  0  0  0  0  0  0  0  0  0  0
   -6.6422    6.5165  -13.5567 O   0  0  0  0  0  0  0  0  0  0  0  0
   -7.1178    5.0324  -15.2023 C   0  0  0  0  0  0  0  0  0  0  0  0
   -8.2718    4.4871  -15.7782 C   0  0  0  0  0  0  0  0  0  0  0  0
   -8.3141    4.2344  -17.1495 C   0  0  0  0  0  0  0  0  0  0  0  0
   -9.5980    3.7509  -17.7786 C   0  0  0  0  0  0  0  0  0  0  0  0
   -9.5750    2.5424  -18.6783 C   0  0  0  0  0  0  0  0  0  0  0  0
   -9.8320    3.9013  -19.2590 C   0  0  0  0  0  0  0  0  0  0  0  0
   -7.2637    4.4822  -17.9629 N   0  0  0  0  0  0  0  0  0  0  0  0
   -6.1828    5.0079  -17.3712 C   0  0  0  0  0  0  0  0  0  0  0  0
   -6.0167    5.2974  -16.0304 C   0  0  0  0  0  0  0  0  0  0  0  0
   -4.6926    5.8168  -15.9443 C   0  0  0  0  0  0  0  0  0  0  0  0
   -3.9421    6.2603  -14.7425 C   0  0  0  0  0  0  0  0  0  0  0  0
   -4.1005    5.8898  -17.1488 N   0  0  0  0  0  0  0  0  0  0  0  0
   -5.0367    5.4057  -17.9927 N   0  0  0  0  0  0  0  0  0  0  0  0
   -4.7985    5.4084  -19.4132 C   0  0  0  0  0  0  0  0  0  0  0  0
   -8.4822    3.3137  -10.8550 C   0  0  0  0  0  0  0  0  0  0  0  0
   -8.5444    3.3424   -9.4765 C   0  0  0  0  0  0  0  0  0  0  0  0
   -9.1564    2.4150   -8.5313 C   0  0  0  0  0  0  0  0  0  0  0  0
   -9.7872    1.4301   -8.8571 O   0  0  0  0  0  0  0  0  0  0  0  0
  1  2  1  0
  2  3  1  0
  3  4  1  0
  4  5  1  0
  5  6  2  0
  5  7  1  0
  7  8  2  0
  8  9  1  0
  9 10  2  0
 10 11  1  0
 11 12  1  0
 12 13  2  0
 12 14  1  0
 14 15  2  0
 15 16  1  0
 16 17  1  0
 17 18  1  0
 18 19  1  0
 16 20  2  0
 20 21  1  0
 21 22  2  0
 22 23  1  0
 23 24  1  0
 23 25  2  0
 25 26  1  0
 26 27  1  0
 10 28  1  0
 28 29  2  0
 29 30  1  0
 30 31  2  0
 30  4  1  0
 29  7  1  0
 22 14  1  0
 19 17  1  0
 26 21  1  0
M  END
>  <name>  (588) 
P125358

>  <alias>  (588) 
None

>  <smina_score_min>  (588) 
-8.62

>  <exports>  (588) 
['/opt/xchem-fragalysis-2/maxwin/BulkDock/OUTPUTS/openbind_xx01zvns2b_c2_elabs_1LOUTNY.sdf', '/opt/xchem-fragalysis-2/maxwin/BulkDock/OUTPUTS/openbind_xx01zvns2b_c2_elabs_1LSYIIV.sdf']

>  <tags>  (588) 
syndirella_placed,openbind_xx01zvns2b_c2_elabs,openbind_xx01zvns2b_c2_elabs_scored_6.2plus,syndirella_product,openbind_xx01zvns2b_c2_elabs_scored,openbind_xx01zvns2b_c2_elabs_scored_top80percent,BulkDock Fragalysis export

>  <subsites>  (588) 
1 - Z4590/B/203/1

>  <smiles>  (588) 
COCN1C(=O)c2ccc(NC(=O)c3cc(C4CC4)nc4c3c(C)nn4C)cc2C1=O

>  <HIPPO Pose ID>  (588) 
125358

>  <energy_score>  (588) 
-31.516013

>  <inchikey>  (588) 
ZWWKQROFMKFISM-UHFFFAOYSA-N

>  <gnina_score_min>  (588) 
6.205

>  <gnina_score>  (588) 
6.159

>  <ref_mols>  (588) 
Z3559a

>  <HIPPO Compound ID>  (588) 
178845

>  <distance_score>  (588) 
0.523846

>  <rmsd(smina/fragmenstein)>  (588) 
0.394

>  <ref_pdb>  (588) 
Z3559a

>  <inspiration_score>  (588) 
None

$$$$
P125359
     RDKit          3D

 31 35  0  0  0  0  0  0  0  0999 V2000
   -9.8148    4.6011   -4.0315 C   0  0  0  0  0  0  0  0  0  0  0  0
  -10.6049    4.3300   -5.1803 O   0  0  0  0  0  0  0  0  0  0  0  0
  -10.7040    2.9345   -5.4887 C   0  0  0  0  0  0  0  0  0  0  0  0
   -9.4221    2.3185   -6.0550 C   0  0  0  0  0  0  0  0  0  0  0  0
   -8.9994    2.9285   -7.2892 N   0  0  0  0  0  0  0  0  0  0  0  0
   -9.1390    2.2694   -8.5767 C   0  0  0  0  0  0  0  0  0  0  0  0
   -8.5435    3.2772   -9.5020 C   0  0  0  0  0  0  0  0  0  0  0  0
   -8.4122    3.2621  -10.8787 C   0  0  0  0  0  0  0  0  0  0  0  0
   -7.8260    4.3781  -11.4896 C   0  0  0  0  0  0  0  0  0  0  0  0
   -7.6243    4.3732  -12.8635 N   0  0  0  0  0  0  0  0  0  0  0  0
   -7.0541    5.4629  -13.7975 C   0  0  0  0  0  0  0  0  0  0  0  0
   -6.5934    6.5060  -13.5498 O   0  0  0  0  0  0  0  0  0  0  0  0
   -7.0826    5.0384  -15.2086 C   0  0  0  0  0  0  0  0  0  0  0  0
   -8.2433    4.4932  -15.7709 C   0  0  0  0  0  0  0  0  0  0  0  0
   -8.3005    4.2416  -17.1421 C   0  0  0  0  0  0  0  0  0  0  0  0
   -9.5892    3.7536  -17.7589 C   0  0  0  0  0  0  0  0  0  0  0  0
   -9.5684    2.5549  -18.6726 C   0  0  0  0  0  0  0  0  0  0  0  0
   -9.8453    3.9176  -19.2346 C   0  0  0  0  0  0  0  0  0  0  0  0
   -7.2590    4.4904  -17.9667 N   0  0  0  0  0  0  0  0  0  0  0  0
   -6.1722    5.0173  -17.3866 C   0  0  0  0  0  0  0  0  0  0  0  0
   -5.9918    5.3066  -16.0478 C   0  0  0  0  0  0  0  0  0  0  0  0
   -4.6670    5.8251  -15.9743 C   0  0  0  0  0  0  0  0  0  0  0  0
   -3.9050    6.2677  -14.7792 C   0  0  0  0  0  0  0  0  0  0  0  0
   -4.0871    5.8974  -17.1847 N   0  0  0  0  0  0  0  0  0  0  0  0
   -5.0319    5.4140  -18.0191 N   0  0  0  0  0  0  0  0  0  0  0  0
   -4.8064    5.4137  -19.4416 C   0  0  0  0  0  0  0  0  0  0  0  0
   -7.4067    5.4869  -10.7282 C   0  0  0  0  0  0  0  0  0  0  0  0
   -7.5189    5.4855   -9.3431 C   0  0  0  0  0  0  0  0  0  0  0  0
   -8.0737    4.3664   -8.7675 C   0  0  0  0  0  0  0  0  0  0  0  0
   -8.2810    4.1015   -7.3488 C   0  0  0  0  0  0  0  0  0  0  0  0
   -7.8513    4.8034   -6.4512 O   0  0  0  0  0  0  0  0  0  0  0  0
  1  2  1  0
  2  3  1  0
  3  4  1  0
  4  5  1  0
  5  6  1  0
  6  7  1  0
  7  8  2  0
  8  9  1  0
  9 10  1  0
 10 11  1  0
 11 12  2  0
 11 13  1  0
 13 14  2  0
 14 15  1  0
 15 16  1  0
 16 17  1  0
 17 18  1  0
 15 19  2  0
 19 20  1  0
 20 21  2  0
 21 22  1  0
 22 23  1  0
 22 24  2  0
 24 25  1  0
 25 26  1  0
  9 27  2  0
 27 28  1  0
 28 29  2  0
 29 30  1  0
 30 31  2  0
 30  5  1  0
 29  7  1  0
 21 13  1  0
 18 16  1  0
 25 20  1  0
M  END
>  <name>  (589) 
P125359

>  <alias>  (589) 
None

>  <smina_score_min>  (589) 
-8.686

>  <exports>  (589) 
['/opt/xchem-fragalysis-2/maxwin/BulkDock/OUTPUTS/openbind_xx01zvns2b_c2_elabs_1LOUTNY.sdf', '/opt/xchem-fragalysis-2/maxwin/BulkDock/OUTPUTS/openbind_xx01zvns2b_c2_elabs_1LSYIIV.sdf']

>  <tags>  (589) 
syndirella_placed,openbind_xx01zvns2b_c2_elabs,openbind_xx01zvns2b_c2_elabs_scored_6.2plus,syndirella_product,openbind_xx01zvns2b_c2_elabs_scored,openbind_xx01zvns2b_c2_elabs_scored_top80percent,BulkDock Fragalysis export

>  <subsites>  (589) 
1 - Z4590/B/203/1

>  <smiles>  (589) 
COCCN1Cc2cc(NC(=O)c3cc(C4CC4)nc4c3c(C)nn4C)ccc2C1=O

>  <HIPPO Pose ID>  (589) 
125359

>  <energy_score>  (589) 
-36.295693

>  <inchikey>  (589) 
XRPLACSGUPGWBE-UHFFFAOYSA-N

>  <gnina_score_min>  (589) 
6.338

>  <gnina_score>  (589) 
6.31

>  <ref_mols>  (589) 
Z3559a

>  <HIPPO Compound ID>  (589) 
178858

>  <distance_score>  (589) 
0.519229

>  <rmsd(smina/fragmenstein)>  (589) 
0.956

>  <ref_pdb>  (589) 
Z3559a

>  <inspiration_score>  (589) 
None

$$$$
P125361
     RDKit          3D

 31 35  0  0  0  0  0  0  0  0999 V2000
   -9.3166    5.9680   -3.8358 C   0  0  0  0  0  0  0  0  0  0  0  0
   -8.3645    5.0449   -4.3337 O   0  0  0  0  0  0  0  0  0  0  0  0
   -8.7077    3.6773   -4.1060 C   0  0  0  0  0  0  0  0  0  0  0  0
   -9.9972    3.1816   -4.7595 C   0  0  0  0  0  0  0  0  0  0  0  0
  -10.1093    3.2698   -6.2842 C   0  0  0  0  0  0  0  0  0  0  0  0
   -8.8769    3.0042   -7.0218 N   0  0  0  0  0  0  0  0  0  0  0  0
   -8.1374    4.2635   -7.2594 C   0  0  0  0  0  0  0  0  0  0  0  0
   -8.1065    4.4660   -8.7327 C   0  0  0  0  0  0  0  0  0  0  0  0
   -7.6657    5.5759   -9.4207 C   0  0  0  0  0  0  0  0  0  0  0  0
   -7.6676    5.5251  -10.8112 C   0  0  0  0  0  0  0  0  0  0  0  0
   -8.0714    4.3672  -11.5020 C   0  0  0  0  0  0  0  0  0  0  0  0
   -7.9295    4.3436  -12.8952 N   0  0  0  0  0  0  0  0  0  0  0  0
   -7.5475    5.4705  -13.8862 C   0  0  0  0  0  0  0  0  0  0  0  0
   -7.3671    6.6111  -13.7037 O   0  0  0  0  0  0  0  0  0  0  0  0
   -7.2771    4.9950  -15.2585 C   0  0  0  0  0  0  0  0  0  0  0  0
   -8.2778    4.4742  -16.0939 C   0  0  0  0  0  0  0  0  0  0  0  0
   -8.0143    4.3090  -17.4650 C   0  0  0  0  0  0  0  0  0  0  0  0
   -9.0126    3.8697  -18.5016 C   0  0  0  0  0  0  0  0  0  0  0  0
  -10.4750    3.6755  -18.2870 C   0  0  0  0  0  0  0  0  0  0  0  0
   -9.5643    2.4794  -18.4119 C   0  0  0  0  0  0  0  0  0  0  0  0
   -6.8192    4.6012  -18.0120 N   0  0  0  0  0  0  0  0  0  0  0  0
   -5.8997    5.0881  -17.1811 C   0  0  0  0  0  0  0  0  0  0  0  0
   -6.0261    5.3031  -15.8262 C   0  0  0  0  0  0  0  0  0  0  0  0
   -4.7619    5.8405  -15.4460 C   0  0  0  0  0  0  0  0  0  0  0  0
   -4.3081    6.2557  -14.0945 C   0  0  0  0  0  0  0  0  0  0  0  0
   -3.9252    5.9624  -16.4935 N   0  0  0  0  0  0  0  0  0  0  0  0
   -4.6576    5.5138  -17.5351 N   0  0  0  0  0  0  0  0  0  0  0  0
   -4.1281    5.5622  -18.8745 C   0  0  0  0  0  0  0  0  0  0  0  0
   -8.5386    3.2565  -10.7835 C   0  0  0  0  0  0  0  0  0  0  0  0
   -8.5770    3.3372   -9.3902 C   0  0  0  0  0  0  0  0  0  0  0  0
   -9.0673    2.3584   -8.3602 C   0  0  0  0  0  0  0  0  0  0  0  0
  1  2  1  0
  2  3  1  0
  3  4  1  0
  4  5  1  0
  5  6  1  0
  6  7  1  0
  7  8  1  0
  8  9  2  0
  9 10  1  0
 10 11  2  0
 11 12  1  0
 12 13  1  0
 13 14  2  0
 13 15  1  0
 15 16  2  0
 16 17  1  0
 17 18  1  0
 18 19  1  0
 19 20  1  0
 17 21  2  0
 21 22  1  0
 22 23  2  0
 23 24  1  0
 24 25  1  0
 24 26  2  0
 26 27  1  0
 27 28  1  0
 11 29  1  0
 29 30  2  0
 30 31  1  0
 31  6  1  0
 30  8  1  0
 23 15  1  0
 20 18  1  0
 27 22  1  0
M  END
>  <name>  (590) 
P125361

>  <alias>  (590) 
None

>  <smina_score_min>  (590) 
-8.805

>  <exports>  (590) 
['/opt/xchem-fragalysis-2/maxwin/BulkDock/OUTPUTS/openbind_xx01zvns2b_c2_elabs_1LOUTNY.sdf', '/opt/xchem-fragalysis-2/maxwin/BulkDock/OUTPUTS/openbind_xx01zvns2b_c2_elabs_1LSYIIV.sdf']

>  <tags>  (590) 
syndirella_placed,openbind_xx01zvns2b_c2_elabs,openbind_xx01zvns2b_c2_elabs_scored_6.2plus,syndirella_product,openbind_xx01zvns2b_c2_elabs_scored,openbind_xx01zvns2b_c2_elabs_scored_top80percent,BulkDock Fragalysis export

>  <subsites>  (590) 
1 - Z4590/B/203/1

>  <smiles>  (590) 
COCCCN1Cc2ccc(NC(=O)c3cc(C4CC4)nc4c3c(C)nn4C)cc2C1

>  <HIPPO Pose ID>  (590) 
125361

>  <energy_score>  (590) 
-30.706285

>  <inchikey>  (590) 
NFGDZAFMPCIZKR-UHFFFAOYSA-N

>  <gnina_score_min>  (590) 
6.467

>  <gnina_score>  (590) 
6.388

>  <ref_mols>  (590) 
Z3559a

>  <HIPPO Compound ID>  (590) 
178856

>  <distance_score>  (590) 
0.680568

>  <rmsd(smina/fragmenstein)>  (590) 
0.8

>  <ref_pdb>  (590) 
Z3559a

>  <inspiration_score>  (590) 
None

$$$$
P125362
     RDKit          3D

 31 36  0  0  0  0  0  0  0  0999 V2000
  -10.0521    2.1190   -6.0504 C   0  0  0  0  0  0  0  0  0  0  0  0
   -9.3209    2.6641   -7.1639 N   0  0  0  0  0  0  0  0  0  0  0  0
   -8.6931    3.8750   -7.1456 C   0  0  0  0  0  0  0  0  0  0  0  0
   -8.5233    4.6540   -6.2245 O   0  0  0  0  0  0  0  0  0  0  0  0
   -8.2947    4.1503   -8.5242 C   0  0  0  0  0  0  0  0  0  0  0  0
   -7.7171    5.2762   -9.0698 C   0  0  0  0  0  0  0  0  0  0  0  0
   -7.5557    5.3006  -10.4587 C   0  0  0  0  0  0  0  0  0  0  0  0
   -7.9624    4.2137  -11.2631 C   0  0  0  0  0  0  0  0  0  0  0  0
   -7.8128    4.2701  -12.6474 N   0  0  0  0  0  0  0  0  0  0  0  0
   -7.3039    5.4137  -13.5575 C   0  0  0  0  0  0  0  0  0  0  0  0
   -7.0038    6.5119  -13.2969 O   0  0  0  0  0  0  0  0  0  0  0  0
   -7.2368    5.0022  -14.9745 C   0  0  0  0  0  0  0  0  0  0  0  0
   -8.3572    4.4608  -15.6182 C   0  0  0  0  0  0  0  0  0  0  0  0
   -8.3360    4.2401  -16.9983 C   0  0  0  0  0  0  0  0  0  0  0  0
   -9.5882    3.7697  -17.7046 C   0  0  0  0  0  0  0  0  0  0  0  0
   -9.5247    2.5785  -18.6273 C   0  0  0  0  0  0  0  0  0  0  0  0
   -9.7462    3.9481  -19.1940 C   0  0  0  0  0  0  0  0  0  0  0  0
   -7.2484    4.5085  -17.7552 N   0  0  0  0  0  0  0  0  0  0  0  0
   -6.1991    5.0257  -17.1008 C   0  0  0  0  0  0  0  0  0  0  0  0
   -6.1033    5.2937  -15.7465 C   0  0  0  0  0  0  0  0  0  0  0  0
   -4.7987    5.8247  -15.6031 C   0  0  0  0  0  0  0  0  0  0  0  0
   -4.1567    6.2900  -14.2664 C   0  0  0  0  0  0  0  0  0  0  0  0
   -2.7654    5.8175  -13.9231 C   0  0  0  0  0  0  0  0  0  0  0  0
   -3.9403    5.3056  -13.1454 C   0  0  0  0  0  0  0  0  0  0  0  0
   -4.1378    5.9240  -16.7646 N   0  0  0  0  0  0  0  0  0  0  0  0
   -5.0221    5.4337  -17.6604 N   0  0  0  0  0  0  0  0  0  0  0  0
   -4.7039    5.4407  -19.0658 C   0  0  0  0  0  0  0  0  0  0  0  0
   -8.5376    3.0791  -10.6819 C   0  0  0  0  0  0  0  0  0  0  0  0
   -8.6995    3.0859   -9.3068 C   0  0  0  0  0  0  0  0  0  0  0  0
   -9.3869    2.1433   -8.4272 C   0  0  0  0  0  0  0  0  0  0  0  0
   -9.9701    1.1532   -8.8189 O   0  0  0  0  0  0  0  0  0  0  0  0
  1  2  1  0
  2  3  1  0
  3  4  2  0
  3  5  1  0
  5  6  2  0
  6  7  1  0
  7  8  2  0
  8  9  1  0
  9 10  1  0
 10 11  2  0
 10 12  1  0
 12 13  2  0
 13 14  1  0
 14 15  1  0
 15 16  1  0
 16 17  1  0
 14 18  2  0
 18 19  1  0
 19 20  2  0
 20 21  1  0
 21 22  1  0
 22 23  1  0
 23 24  1  0
 21 25  2  0
 25 26  1  0
 26 27  1  0
  8 28  1  0
 28 29  2  0
 29 30  1  0
 30 31  2  0
 30  2  1  0
 29  5  1  0
 20 12  1  0
 24 22  1  0
 17 15  1  0
 26 19  1  0
M  END
>  <name>  (591) 
P125362

>  <alias>  (591) 
None

>  <smina_score_min>  (591) 
-8.759

>  <exports>  (591) 
['/opt/xchem-fragalysis-2/maxwin/BulkDock/OUTPUTS/openbind_xx01zvns2b_c2_elabs_1LOUTNY.sdf', '/opt/xchem-fragalysis-2/maxwin/BulkDock/OUTPUTS/openbind_xx01zvns2b_c2_elabs_1LSYIIV.sdf']

>  <tags>  (591) 
syndirella_placed,openbind_xx01zvns2b_c2_elabs,openbind_xx01zvns2b_c2_elabs_scored_6.2plus,syndirella_product,openbind_xx01zvns2b_c2_elabs_scored,openbind_xx01zvns2b_c2_elabs_scored_top80percent,BulkDock Fragalysis export

>  <subsites>  (591) 
1 - Z4590/B/203/1

>  <smiles>  (591) 
CN1C(=O)c2ccc(NC(=O)c3cc(C4CC4)nc4c3c(C3CC3)nn4C)cc2C1=O

>  <HIPPO Pose ID>  (591) 
125362

>  <energy_score>  (591) 
-49.803643

>  <inchikey>  (591) 
UUTOYRUFPODTKZ-UHFFFAOYSA-N

>  <gnina_score_min>  (591) 
6.263

>  <gnina_score>  (591) 
6.349

>  <ref_mols>  (591) 
Z3559a

>  <HIPPO Compound ID>  (591) 
178556

>  <distance_score>  (591) 
0.371306

>  <rmsd(smina/fragmenstein)>  (591) 
0.528

>  <ref_pdb>  (591) 
Z3559a

>  <inspiration_score>  (591) 
None

$$$$
P125363
     RDKit          3D

 31 36  0  0  0  0  0  0  0  0999 V2000
  -10.0117    4.7005   -4.6038 C   0  0  0  0  0  0  0  0  0  0  0  0
  -10.0313    3.1962   -4.8030 C   0  0  0  0  0  0  0  0  0  0  0  0
  -10.0577    2.6456   -6.2352 C   0  0  0  0  0  0  0  0  0  0  0  0
   -8.8866    2.9043   -7.0611 N   0  0  0  0  0  0  0  0  0  0  0  0
   -8.5759    4.3161   -7.2811 C   0  0  0  0  0  0  0  0  0  0  0  0
   -8.2852    4.4648   -8.7287 C   0  0  0  0  0  0  0  0  0  0  0  0
   -7.9114    5.6126   -9.3955 C   0  0  0  0  0  0  0  0  0  0  0  0
   -7.7518    5.5366  -10.7728 C   0  0  0  0  0  0  0  0  0  0  0  0
   -7.9534    4.3264  -11.4588 C   0  0  0  0  0  0  0  0  0  0  0  0
   -7.7387    4.2917  -12.8346 N   0  0  0  0  0  0  0  0  0  0  0  0
   -7.5332    5.4399  -13.8471 C   0  0  0  0  0  0  0  0  0  0  0  0
   -7.4349    6.5908  -13.6767 O   0  0  0  0  0  0  0  0  0  0  0  0
   -7.3505    4.9425  -15.2176 C   0  0  0  0  0  0  0  0  0  0  0  0
   -8.3803    4.2823  -15.8969 C   0  0  0  0  0  0  0  0  0  0  0  0
   -8.2254    3.9954  -17.2543 C   0  0  0  0  0  0  0  0  0  0  0  0
   -9.3114    3.3259  -18.0571 C   0  0  0  0  0  0  0  0  0  0  0  0
  -10.6766    3.9300  -18.2517 C   0  0  0  0  0  0  0  0  0  0  0  0
   -9.6825    4.0056  -19.3573 C   0  0  0  0  0  0  0  0  0  0  0  0
   -7.1132    4.3254  -17.9525 N   0  0  0  0  0  0  0  0  0  0  0  0
   -6.1616    4.9617  -17.2587 C   0  0  0  0  0  0  0  0  0  0  0  0
   -6.1838    5.2829  -15.9163 C   0  0  0  0  0  0  0  0  0  0  0  0
   -4.9343    5.9102  -15.6995 C   0  0  0  0  0  0  0  0  0  0  0  0
   -4.4299    6.4456  -14.3309 C   0  0  0  0  0  0  0  0  0  0  0  0
   -3.0249    6.1218  -13.8882 C   0  0  0  0  0  0  0  0  0  0  0  0
   -4.1910    5.4833  -13.1949 C   0  0  0  0  0  0  0  0  0  0  0  0
   -4.2017    6.0260  -16.8158 N   0  0  0  0  0  0  0  0  0  0  0  0
   -4.9891    5.4551  -17.7540 N   0  0  0  0  0  0  0  0  0  0  0  0
   -4.5837    5.4666  -19.1361 C   0  0  0  0  0  0  0  0  0  0  0  0
   -8.3301    3.1697  -10.7643 C   0  0  0  0  0  0  0  0  0  0  0  0
   -8.5049    3.2624   -9.3899 C   0  0  0  0  0  0  0  0  0  0  0  0
   -8.9653    2.2371   -8.3952 C   0  0  0  0  0  0  0  0  0  0  0  0
  1  2  1  0
  2  3  1  0
  3  4  1  0
  4  5  1  0
  5  6  1  0
  6  7  2  0
  7  8  1  0
  8  9  2  0
  9 10  1  0
 10 11  1  0
 11 12  2  0
 11 13  1  0
 13 14  2  0
 14 15  1  0
 15 16  1  0
 16 17  1  0
 17 18  1  0
 15 19  2  0
 19 20  1  0
 20 21  2  0
 21 22  1  0
 22 23  1  0
 23 24  1  0
 24 25  1  0
 22 26  2  0
 26 27  1  0
 27 28  1  0
  9 29  1  0
 29 30  2  0
 30 31  1  0
 31  4  1  0
 30  6  1  0
 21 13  1  0
 25 23  1  0
 18 16  1  0
 27 20  1  0
M  END
>  <name>  (592) 
P125363

>  <alias>  (592) 
None

>  <smina_score_min>  (592) 
-9.04

>  <exports>  (592) 
['/opt/xchem-fragalysis-2/maxwin/BulkDock/OUTPUTS/openbind_xx01zvns2b_c2_elabs_1LOUTNY.sdf', '/opt/xchem-fragalysis-2/maxwin/BulkDock/OUTPUTS/openbind_xx01zvns2b_c2_elabs_1LSYIIV.sdf']

>  <tags>  (592) 
syndirella_placed,openbind_xx01zvns2b_c2_elabs,openbind_xx01zvns2b_c2_elabs_scored_6.2plus,syndirella_product,openbind_xx01zvns2b_c2_elabs_scored,openbind_xx01zvns2b_c2_elabs_scored_top80percent,BulkDock Fragalysis export

>  <subsites>  (592) 
1 - Z4590/B/203/1

>  <smiles>  (592) 
CCCN1Cc2ccc(NC(=O)c3cc(C4CC4)nc4c3c(C3CC3)nn4C)cc2C1

>  <HIPPO Pose ID>  (592) 
125363

>  <energy_score>  (592) 
-53.127084

>  <inchikey>  (592) 
QVWVGLHJYFYSEL-UHFFFAOYSA-N

>  <gnina_score_min>  (592) 
6.791

>  <gnina_score>  (592) 
6.614

>  <ref_mols>  (592) 
Z3559a

>  <HIPPO Compound ID>  (592) 
178559

>  <distance_score>  (592) 
0.63876

>  <rmsd(smina/fragmenstein)>  (592) 
0.574

>  <ref_pdb>  (592) 
Z3559a

>  <inspiration_score>  (592) 
None

$$$$
P125364
     RDKit          3D

 31 36  0  0  0  0  0  0  0  0999 V2000
  -10.6993    2.6986   -5.3825 C   0  0  0  0  0  0  0  0  0  0  0  0
   -9.8623    1.9435   -6.3913 C   0  0  0  0  0  0  0  0  0  0  0  0
   -9.4467    2.7674   -7.4952 N   0  0  0  0  0  0  0  0  0  0  0  0
   -8.6484    3.9661   -7.3338 C   0  0  0  0  0  0  0  0  0  0  0  0
   -8.2817    4.2907   -8.7418 C   0  0  0  0  0  0  0  0  0  0  0  0
   -7.6710    5.4064   -9.2744 C   0  0  0  0  0  0  0  0  0  0  0  0
   -7.4734    5.4451  -10.6613 C   0  0  0  0  0  0  0  0  0  0  0  0
   -7.8524    4.3652  -11.4829 C   0  0  0  0  0  0  0  0  0  0  0  0
   -7.6477    4.3917  -12.8543 N   0  0  0  0  0  0  0  0  0  0  0  0
   -7.1911    5.5391  -13.7764 C   0  0  0  0  0  0  0  0  0  0  0  0
   -6.9891    6.6625  -13.5412 O   0  0  0  0  0  0  0  0  0  0  0  0
   -7.0865    5.0748  -15.1662 C   0  0  0  0  0  0  0  0  0  0  0  0
   -8.2472    4.5402  -15.7520 C   0  0  0  0  0  0  0  0  0  0  0  0
   -8.2876    4.2780  -17.1158 C   0  0  0  0  0  0  0  0  0  0  0  0
   -9.5649    3.7790  -17.7491 C   0  0  0  0  0  0  0  0  0  0  0  0
   -9.5257    2.5797  -18.6621 C   0  0  0  0  0  0  0  0  0  0  0  0
   -9.8053    3.9398  -19.2278 C   0  0  0  0  0  0  0  0  0  0  0  0
   -7.2357    4.5378  -17.9142 N   0  0  0  0  0  0  0  0  0  0  0  0
   -6.1466    5.0400  -17.3138 C   0  0  0  0  0  0  0  0  0  0  0  0
   -5.9539    5.3080  -15.9634 C   0  0  0  0  0  0  0  0  0  0  0  0
   -4.5906    5.7255  -15.9068 C   0  0  0  0  0  0  0  0  0  0  0  0
   -3.6205    5.9669  -14.7063 C   0  0  0  0  0  0  0  0  0  0  0  0
   -3.8911    7.0264  -13.6808 C   0  0  0  0  0  0  0  0  0  0  0  0
   -3.8918    5.5716  -13.2883 C   0  0  0  0  0  0  0  0  0  0  0  0
   -4.0369    5.8329  -17.1267 N   0  0  0  0  0  0  0  0  0  0  0  0
   -5.0086    5.4196  -17.9556 N   0  0  0  0  0  0  0  0  0  0  0  0
   -4.8010    5.4367  -19.3812 C   0  0  0  0  0  0  0  0  0  0  0  0
   -8.4601    3.2402  -10.9396 C   0  0  0  0  0  0  0  0  0  0  0  0
   -8.6805    3.2520   -9.5803 C   0  0  0  0  0  0  0  0  0  0  0  0
   -9.4203    2.2816   -8.7860 C   0  0  0  0  0  0  0  0  0  0  0  0
   -9.9449    1.2856   -9.2350 O   0  0  0  0  0  0  0  0  0  0  0  0
  1  2  1  0
  2  3  1  0
  3  4  1  0
  4  5  1  0
  5  6  2  0
  6  7  1  0
  7  8  2  0
  8  9  1  0
  9 10  1  0
 10 11  2  0
 10 12  1  0
 12 13  2  0
 13 14  1  0
 14 15  1  0
 15 16  1  0
 16 17  1  0
 14 18  2  0
 18 19  1  0
 19 20  2  0
 20 21  1  0
 21 22  1  0
 22 23  1  0
 23 24  1  0
 21 25  2  0
 25 26  1  0
 26 27  1  0
  8 28  1  0
 28 29  2  0
 29 30  1  0
 30 31  2  0
 30  3  1  0
 29  5  1  0
 20 12  1  0
 24 22  1  0
 17 15  1  0
 26 19  1  0
M  END
>  <name>  (593) 
P125364

>  <alias>  (593) 
None

>  <smina_score_min>  (593) 
-8.605

>  <exports>  (593) 
['/opt/xchem-fragalysis-2/maxwin/BulkDock/OUTPUTS/openbind_xx01zvns2b_c2_elabs_1LOUTNY.sdf', '/opt/xchem-fragalysis-2/maxwin/BulkDock/OUTPUTS/openbind_xx01zvns2b_c2_elabs_1LSYIIV.sdf']

>  <tags>  (593) 
syndirella_placed,openbind_xx01zvns2b_c2_elabs,openbind_xx01zvns2b_c2_elabs_scored_6.2plus,syndirella_product,openbind_xx01zvns2b_c2_elabs_scored,openbind_xx01zvns2b_c2_elabs_scored_top80percent,BulkDock Fragalysis export

>  <subsites>  (593) 
1 - Z4590/B/203/1

>  <smiles>  (593) 
CCN1Cc2ccc(NC(=O)c3cc(C4CC4)nc4c3c(C3CC3)nn4C)cc2C1=O

>  <HIPPO Pose ID>  (593) 
125364

>  <energy_score>  (593) 
-31.710711

>  <inchikey>  (593) 
UBNPVVOMXASSES-UHFFFAOYSA-N

>  <gnina_score_min>  (593) 
6.333

>  <gnina_score>  (593) 
6.455

>  <ref_mols>  (593) 
Z3559a

>  <HIPPO Compound ID>  (593) 
178560

>  <distance_score>  (593) 
0.511054

>  <rmsd(smina/fragmenstein)>  (593) 
0.648

>  <ref_pdb>  (593) 
Z3559a

>  <inspiration_score>  (593) 
None

$$$$
P125366
     RDKit          3D

 31 36  0  0  0  0  0  0  0  0999 V2000
  -10.8206    2.9040   -5.4527 C   0  0  0  0  0  0  0  0  0  0  0  0
   -9.5810    2.2744   -6.0565 C   0  0  0  0  0  0  0  0  0  0  0  0
   -9.1873    2.9126   -7.2834 N   0  0  0  0  0  0  0  0  0  0  0  0
   -9.0993    2.1887   -8.5426 C   0  0  0  0  0  0  0  0  0  0  0  0
   -8.5640    3.2368   -9.4613 C   0  0  0  0  0  0  0  0  0  0  0  0
   -8.3721    3.2104  -10.8314 C   0  0  0  0  0  0  0  0  0  0  0  0
   -7.8927    4.3739  -11.4479 C   0  0  0  0  0  0  0  0  0  0  0  0
   -7.7235    4.3880  -12.8281 N   0  0  0  0  0  0  0  0  0  0  0  0
   -7.1634    5.4856  -13.7586 C   0  0  0  0  0  0  0  0  0  0  0  0
   -6.8277    6.5778  -13.5232 O   0  0  0  0  0  0  0  0  0  0  0  0
   -7.1272    5.0356  -15.1609 C   0  0  0  0  0  0  0  0  0  0  0  0
   -8.2725    4.4827  -15.7481 C   0  0  0  0  0  0  0  0  0  0  0  0
   -8.3025    4.2338  -17.1203 C   0  0  0  0  0  0  0  0  0  0  0  0
   -9.5811    3.7510  -17.7627 C   0  0  0  0  0  0  0  0  0  0  0  0
   -9.5520    2.5469  -18.6684 C   0  0  0  0  0  0  0  0  0  0  0  0
   -9.8037    3.9084  -19.2446 C   0  0  0  0  0  0  0  0  0  0  0  0
   -7.2443    4.4859  -17.9224 N   0  0  0  0  0  0  0  0  0  0  0  0
   -6.1706    5.0148  -17.3187 C   0  0  0  0  0  0  0  0  0  0  0  0
   -6.0203    5.3065  -15.9748 C   0  0  0  0  0  0  0  0  0  0  0  0
   -4.7058    5.8275  -15.8881 C   0  0  0  0  0  0  0  0  0  0  0  0
   -4.0068    6.2661  -14.5675 C   0  0  0  0  0  0  0  0  0  0  0  0
   -3.9559    7.7353  -14.2336 C   0  0  0  0  0  0  0  0  0  0  0  0
   -2.6965    7.0122  -14.6088 C   0  0  0  0  0  0  0  0  0  0  0  0
   -4.0886    5.8933  -17.0760 N   0  0  0  0  0  0  0  0  0  0  0  0
   -5.0172    5.4130  -17.9299 N   0  0  0  0  0  0  0  0  0  0  0  0
   -4.7634    5.4147  -19.3478 C   0  0  0  0  0  0  0  0  0  0  0  0
   -7.6046    5.5277  -10.6923 C   0  0  0  0  0  0  0  0  0  0  0  0
   -7.7845    5.5425   -9.3124 C   0  0  0  0  0  0  0  0  0  0  0  0
   -8.2635    4.3887   -8.7341 C   0  0  0  0  0  0  0  0  0  0  0  0
   -8.6051    4.1600   -7.3324 C   0  0  0  0  0  0  0  0  0  0  0  0
   -8.4126    4.9564   -6.4321 O   0  0  0  0  0  0  0  0  0  0  0  0
  1  2  1  0
  2  3  1  0
  3  4  1  0
  4  5  1  0
  5  6  2  0
  6  7  1  0
  7  8  1  0
  8  9  1  0
  9 10  2  0
  9 11  1  0
 11 12  2  0
 12 13  1  0
 13 14  1  0
 14 15  1  0
 15 16  1  0
 13 17  2  0
 17 18  1  0
 18 19  2  0
 19 20  1  0
 20 21  1  0
 21 22  1  0
 22 23  1  0
 20 24  2  0
 24 25  1  0
 25 26  1  0
  7 27  2  0
 27 28  1  0
 28 29  2  0
 29 30  1  0
 30 31  2  0
 30  3  1  0
 29  5  1  0
 19 11  1  0
 23 21  1  0
 16 14  1  0
 25 18  1  0
M  END
>  <name>  (594) 
P125366

>  <alias>  (594) 
None

>  <smina_score_min>  (594) 
-9.352

>  <exports>  (594) 
['/opt/xchem-fragalysis-2/maxwin/BulkDock/OUTPUTS/openbind_xx01zvns2b_c2_elabs_1LOUTNY.sdf', '/opt/xchem-fragalysis-2/maxwin/BulkDock/OUTPUTS/openbind_xx01zvns2b_c2_elabs_1LSYIIV.sdf']

>  <tags>  (594) 
syndirella_placed,openbind_xx01zvns2b_c2_elabs,openbind_xx01zvns2b_c2_elabs_scored_6.2plus,syndirella_product,openbind_xx01zvns2b_c2_elabs_scored,openbind_xx01zvns2b_c2_elabs_scored_top80percent,BulkDock Fragalysis export

>  <subsites>  (594) 
1 - Z4590/B/203/1

>  <smiles>  (594) 
CCN1Cc2cc(NC(=O)c3cc(C4CC4)nc4c3c(C3CC3)nn4C)ccc2C1=O

>  <HIPPO Pose ID>  (594) 
125366

>  <energy_score>  (594) 
-38.250235

>  <inchikey>  (594) 
DWVFSYNWXUXCEW-UHFFFAOYSA-N

>  <gnina_score_min>  (594) 
6.466

>  <gnina_score>  (594) 
6.419

>  <ref_mols>  (594) 
Z3559a

>  <HIPPO Compound ID>  (594) 
178572

>  <distance_score>  (594) 
0.469819

>  <rmsd(smina/fragmenstein)>  (594) 
1.117

>  <ref_pdb>  (594) 
Z3559a

>  <inspiration_score>  (594) 
None

$$$$
P125368
     RDKit          3D

 31 35  0  0  0  0  0  0  0  0999 V2000
   -9.1270    2.4854   -6.0387 C   0  0  0  0  0  0  0  0  0  0  0  0
   -9.2377    3.2719   -7.2388 N   0  0  0  0  0  0  0  0  0  0  0  0
   -8.9899    2.4981   -8.4734 C   0  0  0  0  0  0  0  0  0  0  0  0
   -8.6158    3.5438   -9.4781 C   0  0  0  0  0  0  0  0  0  0  0  0
   -8.4679    3.4202  -10.8590 C   0  0  0  0  0  0  0  0  0  0  0  0
   -8.0928    4.5535  -11.5843 C   0  0  0  0  0  0  0  0  0  0  0  0
   -7.8857    4.4842  -12.9687 N   0  0  0  0  0  0  0  0  0  0  0  0
   -7.3398    5.5410  -13.9565 C   0  0  0  0  0  0  0  0  0  0  0  0
   -7.0494    6.6601  -13.7846 O   0  0  0  0  0  0  0  0  0  0  0  0
   -7.1142    5.0283  -15.3312 C   0  0  0  0  0  0  0  0  0  0  0  0
   -8.1241    4.4578  -16.1258 C   0  0  0  0  0  0  0  0  0  0  0  0
   -7.9229    4.3250  -17.5152 C   0  0  0  0  0  0  0  0  0  0  0  0
   -8.9422    3.8243  -18.5068 C   0  0  0  0  0  0  0  0  0  0  0  0
  -10.4029    3.6776  -18.2418 C   0  0  0  0  0  0  0  0  0  0  0  0
   -9.5227    2.4552  -18.3337 C   0  0  0  0  0  0  0  0  0  0  0  0
   -6.7857    4.7205  -18.1236 N   0  0  0  0  0  0  0  0  0  0  0  0
   -5.8499    5.2336  -17.3296 C   0  0  0  0  0  0  0  0  0  0  0  0
   -5.9158    5.3972  -15.9639 C   0  0  0  0  0  0  0  0  0  0  0  0
   -4.6904    6.0190  -15.6394 C   0  0  0  0  0  0  0  0  0  0  0  0
   -3.9281    6.2675  -16.7139 N   0  0  0  0  0  0  0  0  0  0  0  0
   -4.6890    5.8226  -17.7445 N   0  0  0  0  0  0  0  0  0  0  0  0
   -4.4472    6.3179  -19.0825 C   0  0  0  0  0  0  0  0  0  0  0  0
   -3.8569    5.3168  -20.0364 C   0  0  0  0  0  0  0  0  0  0  0  0
   -4.7395    4.3467  -20.3576 F   0  0  0  0  0  0  0  0  0  0  0  0
   -2.7590    4.7183  -19.5142 F   0  0  0  0  0  0  0  0  0  0  0  0
   -7.8908    5.7742  -10.9105 C   0  0  0  0  0  0  0  0  0  0  0  0
   -8.0310    5.8833   -9.5224 C   0  0  0  0  0  0  0  0  0  0  0  0
   -8.3869    4.7566   -8.8095 C   0  0  0  0  0  0  0  0  0  0  0  0
   -8.4941    4.5481   -7.3124 C   0  0  0  0  0  0  0  0  0  0  0  0
   -7.0564    4.5819   -6.7628 C   0  0  0  0  0  0  0  0  0  0  0  0
   -9.2642    5.6207   -6.5176 C   0  0  0  0  0  0  0  0  0  0  0  0
  1  2  1  0
  2  3  1  0
  3  4  1  0
  4  5  2  0
  5  6  1  0
  6  7  1  0
  7  8  1  0
  8  9  2  0
  8 10  1  0
 10 11  2  0
 11 12  1  0
 12 13  1  0
 13 14  1  0
 14 15  1  0
 12 16  2  0
 16 17  1  0
 17 18  2  0
 18 19  1  0
 19 20  2  0
 20 21  1  0
 21 22  1  0
 22 23  1  0
 23 24  1  0
 23 25  1  0
  6 26  2  0
 26 27  1  0
 27 28  2  0
 28 29  1  0
 29 30  1  0
 29 31  1  0
 29  2  1  0
 28  4  1  0
 18 10  1  0
 15 13  1  0
 21 17  1  0
M  END
>  <name>  (595) 
P125368

>  <alias>  (595) 
None

>  <smina_score_min>  (595) 
-8.653

>  <exports>  (595) 
['/opt/xchem-fragalysis-2/maxwin/BulkDock/OUTPUTS/openbind_xx01zvns2b_c2_elabs_1LOUTNY.sdf', '/opt/xchem-fragalysis-2/maxwin/BulkDock/OUTPUTS/openbind_xx01zvns2b_c2_elabs_1LSYIIV.sdf']

>  <tags>  (595) 
syndirella_placed,openbind_xx01zvns2b_c2_elabs,openbind_xx01zvns2b_c2_elabs_scored_6.2plus,syndirella_product,openbind_xx01zvns2b_c2_elabs_scored,openbind_xx01zvns2b_c2_elabs_scored_top80percent,BulkDock Fragalysis export

>  <subsites>  (595) 
1 - Z4590/B/203/1

>  <smiles>  (595) 
CN1Cc2cc(NC(=O)c3cc(C4CC4)nc4c3cnn4CC(F)F)ccc2C1(C)C

>  <HIPPO Pose ID>  (595) 
125368

>  <energy_score>  (595) 
-45.849841

>  <inchikey>  (595) 
XXAIIZKWOCMSHS-UHFFFAOYSA-N

>  <gnina_score_min>  (595) 
6.321

>  <gnina_score>  (595) 
6.308

>  <ref_mols>  (595) 
Z3559a

>  <HIPPO Compound ID>  (595) 
178565

>  <distance_score>  (595) 
0.774792

>  <rmsd(smina/fragmenstein)>  (595) 
0.677

>  <ref_pdb>  (595) 
Z3559a

>  <inspiration_score>  (595) 
None

$$$$
P125370
     RDKit          3D

 31 35  0  0  0  0  0  0  0  0999 V2000
   -9.8789    2.1014   -6.2449 C   0  0  0  0  0  0  0  0  0  0  0  0
   -9.2304    2.6812   -7.3913 N   0  0  0  0  0  0  0  0  0  0  0  0
   -8.6341    3.9072   -7.3951 C   0  0  0  0  0  0  0  0  0  0  0  0
   -8.4443    4.6891   -6.4803 O   0  0  0  0  0  0  0  0  0  0  0  0
   -8.3022    4.1945   -8.7896 C   0  0  0  0  0  0  0  0  0  0  0  0
   -7.7736    5.3320   -9.3568 C   0  0  0  0  0  0  0  0  0  0  0  0
   -7.6637    5.3571  -10.7524 C   0  0  0  0  0  0  0  0  0  0  0  0
   -8.0628    4.2587  -11.5501 C   0  0  0  0  0  0  0  0  0  0  0  0
   -7.9164    4.3212  -12.9413 N   0  0  0  0  0  0  0  0  0  0  0  0
   -7.3551    5.4461  -13.8429 C   0  0  0  0  0  0  0  0  0  0  0  0
   -6.9989    6.5260  -13.5733 O   0  0  0  0  0  0  0  0  0  0  0  0
   -7.1562    5.0313  -15.2545 C   0  0  0  0  0  0  0  0  0  0  0  0
   -8.1538    4.4703  -16.0714 C   0  0  0  0  0  0  0  0  0  0  0  0
   -7.9167    4.3167  -17.4528 C   0  0  0  0  0  0  0  0  0  0  0  0
   -8.9263    3.8505  -18.4717 C   0  0  0  0  0  0  0  0  0  0  0  0
  -10.3911    3.6937  -18.2359 C   0  0  0  0  0  0  0  0  0  0  0  0
   -9.5083    2.4758  -18.3482 C   0  0  0  0  0  0  0  0  0  0  0  0
   -6.7402    4.6445  -18.0267 N   0  0  0  0  0  0  0  0  0  0  0  0
   -5.8252    5.1710  -17.2153 C   0  0  0  0  0  0  0  0  0  0  0  0
   -5.9447    5.3968  -15.8630 C   0  0  0  0  0  0  0  0  0  0  0  0
   -4.7254    6.0207  -15.5165 C   0  0  0  0  0  0  0  0  0  0  0  0
   -3.9092    6.1940  -16.5654 N   0  0  0  0  0  0  0  0  0  0  0  0
   -4.6007    5.6433  -17.5887 N   0  0  0  0  0  0  0  0  0  0  0  0
   -4.1158    5.7258  -18.9462 C   0  0  0  0  0  0  0  0  0  0  0  0
   -2.6291    5.4906  -19.0525 C   0  0  0  0  0  0  0  0  0  0  0  0
   -2.2517    5.6972  -20.3452 F   0  0  0  0  0  0  0  0  0  0  0  0
   -2.3398    4.1933  -18.7774 F   0  0  0  0  0  0  0  0  0  0  0  0
   -8.5933    3.1156  -10.9444 C   0  0  0  0  0  0  0  0  0  0  0  0
   -8.7131    3.1243   -9.5607 C   0  0  0  0  0  0  0  0  0  0  0  0
   -9.3557    2.1745   -8.6552 C   0  0  0  0  0  0  0  0  0  0  0  0
   -9.9609    1.1927   -9.0320 O   0  0  0  0  0  0  0  0  0  0  0  0
  1  2  1  0
  2  3  1  0
  3  4  2  0
  3  5  1  0
  5  6  2  0
  6  7  1  0
  7  8  2  0
  8  9  1  0
  9 10  1  0
 10 11  2  0
 10 12  1  0
 12 13  2  0
 13 14  1  0
 14 15  1  0
 15 16  1  0
 16 17  1  0
 14 18  2  0
 18 19  1  0
 19 20  2  0
 20 21  1  0
 21 22  2  0
 22 23  1  0
 23 24  1  0
 24 25  1  0
 25 26  1  0
 25 27  1  0
  8 28  1  0
 28 29  2  0
 29 30  1  0
 30 31  2  0
 30  2  1  0
 29  5  1  0
 20 12  1  0
 17 15  1  0
 23 19  1  0
M  END
>  <name>  (596) 
P125370

>  <alias>  (596) 
None

>  <smina_score_min>  (596) 
-8.921

>  <exports>  (596) 
['/opt/xchem-fragalysis-2/maxwin/BulkDock/OUTPUTS/openbind_xx01zvns2b_c2_elabs_1LOUTNY.sdf', '/opt/xchem-fragalysis-2/maxwin/BulkDock/OUTPUTS/openbind_xx01zvns2b_c2_elabs_1LSYIIV.sdf']

>  <tags>  (596) 
syndirella_placed,openbind_xx01zvns2b_c2_elabs,openbind_xx01zvns2b_c2_elabs_scored_6.2plus,syndirella_product,openbind_xx01zvns2b_c2_elabs_scored,openbind_xx01zvns2b_c2_elabs_scored_top80percent,BulkDock Fragalysis export

>  <subsites>  (596) 
1 - Z4590/B/203/1

>  <smiles>  (596) 
CN1C(=O)c2ccc(NC(=O)c3cc(C4CC4)nc4c3cnn4CC(F)F)cc2C1=O

>  <HIPPO Pose ID>  (596) 
125370

>  <energy_score>  (596) 
-27.026425

>  <inchikey>  (596) 
LJRMQPRJFUWYLV-UHFFFAOYSA-N

>  <gnina_score_min>  (596) 
6.213

>  <gnina_score>  (596) 
6.264

>  <ref_mols>  (596) 
Z3559a

>  <HIPPO Compound ID>  (596) 
178569

>  <distance_score>  (596) 
0.623424

>  <rmsd(smina/fragmenstein)>  (596) 
0.357

>  <ref_pdb>  (596) 
Z3559a

>  <inspiration_score>  (596) 
None

$$$$
P125371
     RDKit          3D

 31 35  0  0  0  0  0  0  0  0999 V2000
  -10.8811    2.9709   -5.4470 C   0  0  0  0  0  0  0  0  0  0  0  0
   -9.6289    2.3164   -5.9930 C   0  0  0  0  0  0  0  0  0  0  0  0
   -9.1888    2.9226   -7.2211 N   0  0  0  0  0  0  0  0  0  0  0  0
   -9.1636    2.2005   -8.4843 C   0  0  0  0  0  0  0  0  0  0  0  0
   -8.5906    3.2221   -9.4102 C   0  0  0  0  0  0  0  0  0  0  0  0
   -8.4035    3.1806  -10.7812 C   0  0  0  0  0  0  0  0  0  0  0  0
   -7.8466    4.3074  -11.3990 C   0  0  0  0  0  0  0  0  0  0  0  0
   -7.6345    4.2961  -12.7726 N   0  0  0  0  0  0  0  0  0  0  0  0
   -6.9946    5.3549  -13.6978 C   0  0  0  0  0  0  0  0  0  0  0  0
   -6.4758    6.3691  -13.4419 O   0  0  0  0  0  0  0  0  0  0  0  0
   -7.0680    4.9705  -15.1223 C   0  0  0  0  0  0  0  0  0  0  0  0
   -8.2228    4.4305  -15.7011 C   0  0  0  0  0  0  0  0  0  0  0  0
   -8.2872    4.2404  -17.0860 C   0  0  0  0  0  0  0  0  0  0  0  0
   -9.5719    3.7554  -17.7168 C   0  0  0  0  0  0  0  0  0  0  0  0
   -9.8265    3.9418  -19.1912 C   0  0  0  0  0  0  0  0  0  0  0  0
   -9.5412    2.5724  -18.6516 C   0  0  0  0  0  0  0  0  0  0  0  0
   -7.2588    4.5485  -17.9109 N   0  0  0  0  0  0  0  0  0  0  0  0
   -6.1824    5.0762  -17.3161 C   0  0  0  0  0  0  0  0  0  0  0  0
   -6.0031    5.3001  -15.9668 C   0  0  0  0  0  0  0  0  0  0  0  0
   -4.7120    5.8631  -15.8740 C   0  0  0  0  0  0  0  0  0  0  0  0
   -4.1209    6.0054  -17.0676 N   0  0  0  0  0  0  0  0  0  0  0  0
   -5.0654    5.5630  -17.9322 N   0  0  0  0  0  0  0  0  0  0  0  0
   -4.8776    5.7297  -19.3542 C   0  0  0  0  0  0  0  0  0  0  0  0
   -4.7571    7.1938  -19.7039 C   0  0  0  0  0  0  0  0  0  0  0  0
   -5.9219    7.8572  -19.4612 F   0  0  0  0  0  0  0  0  0  0  0  0
   -4.5213    7.3293  -21.0370 F   0  0  0  0  0  0  0  0  0  0  0  0
   -7.4965    5.4467  -10.6466 C   0  0  0  0  0  0  0  0  0  0  0  0
   -7.6880    5.4825   -9.2690 C   0  0  0  0  0  0  0  0  0  0  0  0
   -8.2291    4.3592   -8.6868 C   0  0  0  0  0  0  0  0  0  0  0  0
   -8.5655    4.1485   -7.2810 C   0  0  0  0  0  0  0  0  0  0  0  0
   -8.3363    4.9402   -6.3852 O   0  0  0  0  0  0  0  0  0  0  0  0
  1  2  1  0
  2  3  1  0
  3  4  1  0
  4  5  1  0
  5  6  2  0
  6  7  1  0
  7  8  1  0
  8  9  1  0
  9 10  2  0
  9 11  1  0
 11 12  2  0
 12 13  1  0
 13 14  1  0
 14 15  1  0
 15 16  1  0
 13 17  2  0
 17 18  1  0
 18 19  2  0
 19 20  1  0
 20 21  2  0
 21 22  1  0
 22 23  1  0
 23 24  1  0
 24 25  1  0
 24 26  1  0
  7 27  2  0
 27 28  1  0
 28 29  2  0
 29 30  1  0
 30 31  2  0
 30  3  1  0
 29  5  1  0
 19 11  1  0
 16 14  1  0
 22 18  1  0
M  END
>  <name>  (597) 
P125371

>  <alias>  (597) 
None

>  <smina_score_min>  (597) 
-8.736

>  <exports>  (597) 
['/opt/xchem-fragalysis-2/maxwin/BulkDock/OUTPUTS/openbind_xx01zvns2b_c2_elabs_1LOUTNY.sdf', '/opt/xchem-fragalysis-2/maxwin/BulkDock/OUTPUTS/openbind_xx01zvns2b_c2_elabs_1LSYIIV.sdf']

>  <tags>  (597) 
syndirella_placed,openbind_xx01zvns2b_c2_elabs,openbind_xx01zvns2b_c2_elabs_scored_6.2plus,syndirella_product,openbind_xx01zvns2b_c2_elabs_scored,openbind_xx01zvns2b_c2_elabs_scored_top80percent,BulkDock Fragalysis export

>  <subsites>  (597) 
1 - Z4590/B/203/1

>  <smiles>  (597) 
CCN1Cc2cc(NC(=O)c3cc(C4CC4)nc4c3cnn4CC(F)F)ccc2C1=O

>  <HIPPO Pose ID>  (597) 
125371

>  <energy_score>  (597) 
-58.451952

>  <inchikey>  (597) 
DQBFWICPISVFQA-UHFFFAOYSA-N

>  <gnina_score_min>  (597) 
6.262

>  <gnina_score>  (597) 
6.217

>  <ref_mols>  (597) 
Z3559a

>  <HIPPO Compound ID>  (597) 
178562

>  <distance_score>  (597) 
0.448521

>  <rmsd(smina/fragmenstein)>  (597) 
0.491

>  <ref_pdb>  (597) 
Z3559a

>  <inspiration_score>  (597) 
None

$$$$
P125372
     RDKit          3D

 31 36  0  0  0  0  0  0  0  0999 V2000
   -9.9579    1.0590   -8.7127 O   0  0  0  0  0  0  0  0  0  0  0  0
   -9.4031    2.0802   -8.3691 C   0  0  0  0  0  0  0  0  0  0  0  0
   -9.2781    2.5487   -7.0780 N   0  0  0  0  0  0  0  0  0  0  0  0
   -8.5870    3.8058   -7.0100 C   0  0  0  0  0  0  0  0  0  0  0  0
   -8.3253    4.1174   -8.4441 C   0  0  0  0  0  0  0  0  0  0  0  0
   -7.7362    5.2274   -9.0138 C   0  0  0  0  0  0  0  0  0  0  0  0
   -7.6091    5.2626  -10.4083 C   0  0  0  0  0  0  0  0  0  0  0  0
   -8.0590    4.1990  -11.2172 C   0  0  0  0  0  0  0  0  0  0  0  0
   -7.9133    4.2624  -12.6053 N   0  0  0  0  0  0  0  0  0  0  0  0
   -7.1730    5.2948  -13.4936 C   0  0  0  0  0  0  0  0  0  0  0  0
   -6.6361    6.2933  -13.2079 O   0  0  0  0  0  0  0  0  0  0  0  0
   -7.1928    4.9363  -14.9361 C   0  0  0  0  0  0  0  0  0  0  0  0
   -8.3204    4.3995  -15.5734 C   0  0  0  0  0  0  0  0  0  0  0  0
   -8.3332    4.2259  -16.9645 C   0  0  0  0  0  0  0  0  0  0  0  0
   -9.5932    3.7592  -17.6594 C   0  0  0  0  0  0  0  0  0  0  0  0
   -9.7826    3.9699  -19.1420 C   0  0  0  0  0  0  0  0  0  0  0  0
   -9.5316    2.5909  -18.6122 C   0  0  0  0  0  0  0  0  0  0  0  0
   -7.2722    4.5351  -17.7446 N   0  0  0  0  0  0  0  0  0  0  0  0
   -6.2230    5.0628  -17.1024 C   0  0  0  0  0  0  0  0  0  0  0  0
   -6.1029    5.2909  -15.7462 C   0  0  0  0  0  0  0  0  0  0  0  0
   -4.8296    5.8867  -15.6142 C   0  0  0  0  0  0  0  0  0  0  0  0
   -4.1984    6.0432  -16.7847 N   0  0  0  0  0  0  0  0  0  0  0  0
   -5.0753    5.5345  -17.6866 N   0  0  0  0  0  0  0  0  0  0  0  0
   -4.8769    5.5892  -19.1340 C   0  0  0  0  0  0  0  0  0  0  0  0
   -3.5251    6.0754  -19.5731 C   0  0  0  0  0  0  0  0  0  0  0  0
   -2.2973    5.3420  -19.4427 C   0  0  0  0  0  0  0  0  0  0  0  0
   -1.2135    6.0196  -19.9556 C   0  0  0  0  0  0  0  0  0  0  0  0
   -1.6538    7.5356  -20.6031 S   0  0  0  0  0  0  0  0  0  0  0  0
   -3.2959    7.2912  -20.1945 C   0  0  0  0  0  0  0  0  0  0  0  0
   -8.6601    3.0825  -10.6325 C   0  0  0  0  0  0  0  0  0  0  0  0
   -8.7842    3.0770   -9.2519 C   0  0  0  0  0  0  0  0  0  0  0  0
  1  2  2  0
  2  3  1  0
  3  4  1  0
  4  5  1  0
  5  6  2  0
  6  7  1  0
  7  8  2  0
  8  9  1  0
  9 10  1  0
 10 11  2  0
 10 12  1  0
 12 13  2  0
 13 14  1  0
 14 15  1  0
 15 16  1  0
 16 17  1  0
 14 18  2  0
 18 19  1  0
 19 20  2  0
 20 21  1  0
 21 22  2  0
 22 23  1  0
 23 24  1  0
 24 25  1  0
 25 26  1  0
 26 27  2  0
 27 28  1  0
 28 29  1  0
  8 30  1  0
 30 31  2  0
 31  2  1  0
 31  5  1  0
 20 12  1  0
 29 25  2  0
 17 15  1  0
 23 19  1  0
M  END
>  <name>  (598) 
P125372

>  <alias>  (598) 
None

>  <smina_score_min>  (598) 
-8.95

>  <exports>  (598) 
['/opt/xchem-fragalysis-2/maxwin/BulkDock/OUTPUTS/openbind_xx01zvns2b_c2_elabs_1LOUTNY.sdf', '/opt/xchem-fragalysis-2/maxwin/BulkDock/OUTPUTS/openbind_xx01zvns2b_c2_elabs_1LSYIIV.sdf']

>  <tags>  (598) 
syndirella_placed,openbind_xx01zvns2b_c2_elabs,openbind_xx01zvns2b_c2_elabs_scored_6.2plus,syndirella_product,openbind_xx01zvns2b_c2_elabs_scored,openbind_xx01zvns2b_c2_elabs_scored_top80percent,BulkDock Fragalysis export

>  <subsites>  (598) 
1 - Z4590/B/203/1

>  <smiles>  (598) 
O=C1NCc2ccc(NC(=O)c3cc(C4CC4)nc4c3cnn4Cc3ccsc3)cc21

>  <HIPPO Pose ID>  (598) 
125372

>  <energy_score>  (598) 
-47.209837

>  <inchikey>  (598) 
IIIKGXXIXVZJOJ-UHFFFAOYSA-N

>  <gnina_score_min>  (598) 
6.288

>  <gnina_score>  (598) 
6.406

>  <ref_mols>  (598) 
Z3559a

>  <HIPPO Compound ID>  (598) 
178665

>  <distance_score>  (598) 
0.311796

>  <rmsd(smina/fragmenstein)>  (598) 
0.306

>  <ref_pdb>  (598) 
Z3559a

>  <inspiration_score>  (598) 
None

$$$$
P125379
     RDKit          3D

 31 36  0  0  0  0  0  0  0  0999 V2000
  -10.6668    1.8432   -5.7778 C   0  0  0  0  0  0  0  0  0  0  0  0
   -9.3420    2.5292   -6.0298 C   0  0  0  0  0  0  0  0  0  0  0  0
   -9.3862    3.2624   -7.2789 N   0  0  0  0  0  0  0  0  0  0  0  0
   -8.3978    4.3437   -7.3123 C   0  0  0  0  0  0  0  0  0  0  0  0
   -8.1292    4.5267   -8.7632 C   0  0  0  0  0  0  0  0  0  0  0  0
   -7.5479    5.6006   -9.3971 C   0  0  0  0  0  0  0  0  0  0  0  0
   -7.3732    5.5159  -10.7738 C   0  0  0  0  0  0  0  0  0  0  0  0
   -7.7644    4.3695  -11.4901 C   0  0  0  0  0  0  0  0  0  0  0  0
   -7.5349    4.3129  -12.8616 N   0  0  0  0  0  0  0  0  0  0  0  0
   -6.8552    5.3285  -13.8088 C   0  0  0  0  0  0  0  0  0  0  0  0
   -6.3130    6.3367  -13.5749 O   0  0  0  0  0  0  0  0  0  0  0  0
   -6.9329    4.9270  -15.2293 C   0  0  0  0  0  0  0  0  0  0  0  0
   -8.1007    4.4275  -15.8055 C   0  0  0  0  0  0  0  0  0  0  0  0
   -8.1760    4.2691  -17.1931 C   0  0  0  0  0  0  0  0  0  0  0  0
   -9.4783    3.7883  -17.7965 C   0  0  0  0  0  0  0  0  0  0  0  0
   -9.7535    3.9330  -19.2689 C   0  0  0  0  0  0  0  0  0  0  0  0
   -9.4773    2.5766  -18.6929 C   0  0  0  0  0  0  0  0  0  0  0  0
   -7.1553    4.5976  -18.0296 N   0  0  0  0  0  0  0  0  0  0  0  0
   -6.0362    5.0426  -17.4333 C   0  0  0  0  0  0  0  0  0  0  0  0
   -5.8537    5.2162  -16.0721 C   0  0  0  0  0  0  0  0  0  0  0  0
   -4.5415    5.7082  -15.9452 C   0  0  0  0  0  0  0  0  0  0  0  0
   -3.9286    5.8597  -17.1208 N   0  0  0  0  0  0  0  0  0  0  0  0
   -4.8770    5.4932  -18.0305 N   0  0  0  0  0  0  0  0  0  0  0  0
   -4.6887    5.9654  -19.4143 C   0  0  2  0  0  0  0  0  0  0  0  0
   -5.4144    7.3038  -19.5748 C   0  0  0  0  0  0  0  0  0  0  0  0
   -5.0758    5.0066  -20.5192 C   0  0  0  0  0  0  0  0  0  0  0  0
   -4.8099    5.4179  -21.9589 C   0  0  0  0  0  0  0  0  0  0  0  0
   -4.0477    4.2820  -21.3632 C   0  0  0  0  0  0  0  0  0  0  0  0
   -8.3642    3.2901  -10.8331 C   0  0  0  0  0  0  0  0  0  0  0  0
   -8.5451    3.3909   -9.4629 C   0  0  0  0  0  0  0  0  0  0  0  0
   -9.1465    2.4242   -8.4849 C   0  0  0  0  0  0  0  0  0  0  0  0
  1  2  1  0
  2  3  1  0
  3  4  1  0
  4  5  1  0
  5  6  2  0
  6  7  1  0
  7  8  2  0
  8  9  1  0
  9 10  1  0
 10 11  2  0
 10 12  1  0
 12 13  2  0
 13 14  1  0
 14 15  1  0
 15 16  1  0
 16 17  1  0
 14 18  2  0
 18 19  1  0
 19 20  2  0
 20 21  1  0
 21 22  2  0
 22 23  1  0
 23 24  1  0
 24 25  1  1
 24 26  1  0
 26 27  1  0
 27 28  1  0
  8 29  1  0
 29 30  2  0
 30 31  1  0
 31  3  1  0
 30  5  1  0
 20 12  1  0
 28 26  1  0
 17 15  1  0
 23 19  1  0
M  END
>  <name>  (599) 
P125379

>  <alias>  (599) 
None

>  <smina_score_min>  (599) 
-9.229

>  <exports>  (599) 
['/opt/xchem-fragalysis-2/maxwin/BulkDock/OUTPUTS/openbind_xx01zvns2b_c2_elabs_1LOUTNY.sdf', '/opt/xchem-fragalysis-2/maxwin/BulkDock/OUTPUTS/openbind_xx01zvns2b_c2_elabs_1LSYIIV.sdf']

>  <tags>  (599) 
syndirella_placed,openbind_xx01zvns2b_c2_elabs,openbind_xx01zvns2b_c2_elabs_scored_6.2plus,syndirella_product,openbind_xx01zvns2b_c2_elabs_scored,openbind_xx01zvns2b_c2_elabs_scored_top80percent,BulkDock Fragalysis export

>  <subsites>  (599) 
1 - Z4590/B/203/1

>  <smiles>  (599) 
CCN1Cc2ccc(NC(=O)c3cc(C4CC4)nc4c3cnn4[C@H](C)C3CC3)cc2C1

>  <HIPPO Pose ID>  (599) 
125379

>  <energy_score>  (599) 
-47.386593

>  <inchikey>  (599) 
YWBYYNCAUORJOG-OAHLLOKOSA-N

>  <gnina_score_min>  (599) 
6.392

>  <gnina_score>  (599) 
6.316

>  <ref_mols>  (599) 
Z3559a

>  <HIPPO Compound ID>  (599) 
178759

>  <distance_score>  (599) 
0.60981

>  <rmsd(smina/fragmenstein)>  (599) 
1.348

>  <ref_pdb>  (599) 
Z3559a

>  <inspiration_score>  (599) 
None

$$$$
P125382
     RDKit          3D

 31 36  0  0  0  0  0  0  0  0999 V2000
   -5.3591    7.1209  -19.7211 C   0  0  0  0  0  0  0  0  0  0  0  0
   -4.7565    5.7574  -19.3732 C   0  0  1  0  0  0  0  0  0  0  0  0
   -3.3084    5.6803  -19.8401 C   0  0  0  0  0  0  0  0  0  0  0  0
   -2.9167    6.0421  -21.2611 C   0  0  0  0  0  0  0  0  0  0  0  0
   -2.8558    4.6162  -20.8151 C   0  0  0  0  0  0  0  0  0  0  0  0
   -4.9217    5.5340  -17.9242 N   0  0  0  0  0  0  0  0  0  0  0  0
   -4.0181    6.0271  -17.0356 N   0  0  0  0  0  0  0  0  0  0  0  0
   -4.6222    5.8714  -15.8537 C   0  0  0  0  0  0  0  0  0  0  0  0
   -5.9077    5.3044  -15.9632 C   0  0  0  0  0  0  0  0  0  0  0  0
   -6.9788    4.9812  -15.1218 C   0  0  0  0  0  0  0  0  0  0  0  0
   -6.9019    5.3358  -13.6826 C   0  0  0  0  0  0  0  0  0  0  0  0
   -6.3255    6.3092  -13.3934 O   0  0  0  0  0  0  0  0  0  0  0  0
   -7.6168    4.2937  -12.7934 N   0  0  0  0  0  0  0  0  0  0  0  0
   -7.8451    4.2813  -11.4218 C   0  0  0  0  0  0  0  0  0  0  0  0
   -7.3909    5.3301  -10.5972 C   0  0  0  0  0  0  0  0  0  0  0  0
   -7.5969    5.3105   -9.2111 C   0  0  0  0  0  0  0  0  0  0  0  0
   -8.2737    4.2359   -8.6747 C   0  0  0  0  0  0  0  0  0  0  0  0
   -8.7374    3.2212   -9.5089 C   0  0  0  0  0  0  0  0  0  0  0  0
   -8.5332    3.2036  -10.8739 C   0  0  0  0  0  0  0  0  0  0  0  0
   -9.4745    2.2649   -8.6891 C   0  0  0  0  0  0  0  0  0  0  0  0
   -9.9829    1.2467   -9.1073 O   0  0  0  0  0  0  0  0  0  0  0  0
   -9.4810    2.7664   -7.3984 N   0  0  0  0  0  0  0  0  0  0  0  0
   -9.7836    1.9075   -6.2904 C   0  0  0  0  0  0  0  0  0  0  0  0
   -8.6262    3.9254   -7.2599 C   0  0  0  0  0  0  0  0  0  0  0  0
   -8.1317    4.4517  -15.7132 C   0  0  0  0  0  0  0  0  0  0  0  0
   -8.1889    4.2605  -17.0990 C   0  0  0  0  0  0  0  0  0  0  0  0
   -9.4793    3.7686  -17.7194 C   0  0  0  0  0  0  0  0  0  0  0  0
   -9.7631    3.9696  -19.1852 C   0  0  0  0  0  0  0  0  0  0  0  0
   -9.4542    2.5967  -18.6678 C   0  0  0  0  0  0  0  0  0  0  0  0
   -7.1537    4.5648  -17.9216 N   0  0  0  0  0  0  0  0  0  0  0  0
   -6.0678    5.0724  -17.3168 C   0  0  0  0  0  0  0  0  0  0  0  0
  2  1  1  1
  2  3  1  0
  3  4  1  0
  4  5  1  0
  2  6  1  0
  6  7  1  0
  7  8  2  0
  8  9  1  0
  9 10  2  0
 10 11  1  0
 11 12  2  0
 11 13  1  0
 13 14  1  0
 14 15  2  0
 15 16  1  0
 16 17  2  0
 17 18  1  0
 18 19  2  0
 18 20  1  0
 20 21  2  0
 20 22  1  0
 22 23  1  0
 22 24  1  0
 10 25  1  0
 25 26  2  0
 26 27  1  0
 27 28  1  0
 28 29  1  0
 26 30  1  0
 30 31  2  0
  5  3  1  0
 31  6  1  0
 31  9  1  0
 19 14  1  0
 29 27  1  0
 24 17  1  0
M  END
>  <name>  (600) 
P125382

>  <alias>  (600) 
None

>  <smina_score_min>  (600) 
-8.929

>  <exports>  (600) 
['/opt/xchem-fragalysis-2/maxwin/BulkDock/OUTPUTS/openbind_xx01zvns2b_c2_elabs_1LOUTNY.sdf', '/opt/xchem-fragalysis-2/maxwin/BulkDock/OUTPUTS/openbind_xx01zvns2b_c2_elabs_1LSYIIV.sdf']

>  <tags>  (600) 
syndirella_placed,openbind_xx01zvns2b_c2_elabs,openbind_xx01zvns2b_c2_elabs_scored_6.2plus,syndirella_product,openbind_xx01zvns2b_c2_elabs_scored,openbind_xx01zvns2b_c2_elabs_scored_top80percent,BulkDock Fragalysis export

>  <subsites>  (600) 
1 - Z4590/B/203/1

>  <smiles>  (600) 
C[C@@H](C1CC1)n1ncc2c(C(=O)Nc3ccc4c(c3)C(=O)N(C)C4)cc(C3CC3)nc21

>  <HIPPO Pose ID>  (600) 
125382

>  <energy_score>  (600) 
-33.717891

>  <inchikey>  (600) 
CXQGHNNODNUDSX-ZDUSSCGKSA-N

>  <gnina_score_min>  (600) 
6.303

>  <gnina_score>  (600) 
6.388

>  <ref_mols>  (600) 
Z3559a

>  <HIPPO Compound ID>  (600) 
178749

>  <distance_score>  (600) 
0.475822

>  <rmsd(smina/fragmenstein)>  (600) 
0.437

>  <ref_pdb>  (600) 
Z3559a

>  <inspiration_score>  (600) 
None

$$$$
P125383
     RDKit          3D

 31 36  0  0  0  0  0  0  0  0999 V2000
   -5.5077    6.6894  -19.7070 C   0  0  0  0  0  0  0  0  0  0  0  0
   -4.6162    5.6754  -18.9843 C   0  0  1  0  0  0  0  0  0  0  0  0
   -3.1617    6.0137  -19.2632 C   0  0  0  0  0  0  0  0  0  0  0  0
   -2.4865    5.4665  -20.4989 C   0  0  0  0  0  0  0  0  0  0  0  0
   -2.0519    4.9991  -19.1386 C   0  0  0  0  0  0  0  0  0  0  0  0
   -4.9382    5.6509  -17.5509 N   0  0  0  0  0  0  0  0  0  0  0  0
   -4.1373    6.2577  -16.6337 N   0  0  0  0  0  0  0  0  0  0  0  0
   -4.8103    6.1125  -15.4879 C   0  0  0  0  0  0  0  0  0  0  0  0
   -6.0388    5.4460  -15.6530 C   0  0  0  0  0  0  0  0  0  0  0  0
   -7.1380    5.0782  -14.8750 C   0  0  0  0  0  0  0  0  0  0  0  0
   -7.2222    5.5196  -13.4703 C   0  0  0  0  0  0  0  0  0  0  0  0
   -7.1429    6.6720  -13.2416 O   0  0  0  0  0  0  0  0  0  0  0  0
   -7.4492    4.3525  -12.5405 N   0  0  0  0  0  0  0  0  0  0  0  0
   -6.0824    3.7708  -12.0072 C   0  0  0  0  0  0  0  0  0  0  0  0
   -7.7369    4.3176  -11.0909 C   0  0  0  0  0  0  0  0  0  0  0  0
   -7.6662    5.5066  -10.3270 C   0  0  0  0  0  0  0  0  0  0  0  0
   -7.9787    5.5063   -8.9658 C   0  0  0  0  0  0  0  0  0  0  0  0
   -8.4120    4.3238   -8.3946 C   0  0  0  0  0  0  0  0  0  0  0  0
   -8.5872    3.1729   -9.1587 C   0  0  0  0  0  0  0  0  0  0  0  0
   -8.2949    3.1578  -10.5128 C   0  0  0  0  0  0  0  0  0  0  0  0
   -9.1292    2.0789   -8.2941 C   0  0  0  0  0  0  0  0  0  0  0  0
   -9.0470    2.6040   -6.9119 N   0  0  0  0  0  0  0  0  0  0  0  0
  -10.1784    2.2317   -6.0866 C   0  0  0  0  0  0  0  0  0  0  0  0
   -8.8043    4.0500   -6.9788 C   0  0  0  0  0  0  0  0  0  0  0  0
   -8.2161    4.4528  -15.5063 C   0  0  0  0  0  0  0  0  0  0  0  0
   -8.1895    4.2454  -16.8914 C   0  0  0  0  0  0  0  0  0  0  0  0
   -9.4387    3.7425  -17.5892 C   0  0  0  0  0  0  0  0  0  0  0  0
   -9.3558    2.6316  -18.6059 C   0  0  0  0  0  0  0  0  0  0  0  0
   -9.6768    4.0250  -19.0531 C   0  0  0  0  0  0  0  0  0  0  0  0
   -7.1157    4.5700  -17.6566 N   0  0  0  0  0  0  0  0  0  0  0  0
   -6.0976    5.1541  -17.0028 C   0  0  0  0  0  0  0  0  0  0  0  0
  2  1  1  6
  2  3  1  0
  3  4  1  0
  4  5  1  0
  2  6  1  0
  6  7  1  0
  7  8  2  0
  8  9  1  0
  9 10  2  0
 10 11  1  0
 11 12  2  0
 11 13  1  0
 13 14  1  0
 13 15  1  0
 15 16  2  0
 16 17  1  0
 17 18  2  0
 18 19  1  0
 19 20  2  0
 19 21  1  0
 21 22  1  0
 22 23  1  0
 22 24  1  0
 10 25  1  0
 25 26  2  0
 26 27  1  0
 27 28  1  0
 28 29  1  0
 26 30  1  0
 30 31  2  0
  5  3  1  0
 31  6  1  0
 31  9  1  0
 20 15  1  0
 29 27  1  0
 24 18  1  0
M  END
>  <name>  (601) 
P125383

>  <alias>  (601) 
None

>  <smina_score_min>  (601) 
-9.284

>  <exports>  (601) 
['/opt/xchem-fragalysis-2/maxwin/BulkDock/OUTPUTS/openbind_xx01zvns2b_c2_elabs_1LOUTNY.sdf', '/opt/xchem-fragalysis-2/maxwin/BulkDock/OUTPUTS/openbind_xx01zvns2b_c2_elabs_1LSYIIV.sdf']

>  <tags>  (601) 
syndirella_placed,openbind_xx01zvns2b_c2_elabs,openbind_xx01zvns2b_c2_elabs_scored_6.2plus,syndirella_product,openbind_xx01zvns2b_c2_elabs_scored,openbind_xx01zvns2b_c2_elabs_scored_top80percent,BulkDock Fragalysis export

>  <subsites>  (601) 
1 - Z4590/B/203/1

>  <smiles>  (601) 
C[C@@H](C1CC1)n1ncc2c(C(=O)N(C)c3ccc4c(c3)CN(C)C4)cc(C3CC3)nc21

>  <HIPPO Pose ID>  (601) 
125383

>  <energy_score>  (601) 
-33.151137

>  <inchikey>  (601) 
TWYCDBNPPQXLJG-HNNXBMFYSA-N

>  <gnina_score_min>  (601) 
6.423

>  <gnina_score>  (601) 
6.453

>  <ref_mols>  (601) 
Z3559a

>  <HIPPO Compound ID>  (601) 
178750

>  <distance_score>  (601) 
0.496893

>  <rmsd(smina/fragmenstein)>  (601) 
0.375

>  <ref_pdb>  (601) 
Z3559a

>  <inspiration_score>  (601) 
None

$$$$
P125384
     RDKit          3D

 31 36  0  0  0  0  0  0  0  0999 V2000
   -5.5336    5.0867  -19.9248 C   0  0  0  0  0  0  0  0  0  0  0  0
   -4.5322    5.6077  -18.8982 C   0  0  1  0  0  0  0  0  0  0  0  0
   -4.1932    7.0512  -19.2402 C   0  0  0  0  0  0  0  0  0  0  0  0
   -2.8079    7.6030  -18.9996 C   0  0  0  0  0  0  0  0  0  0  0  0
   -3.2834    7.3699  -20.4046 C   0  0  0  0  0  0  0  0  0  0  0  0
   -4.9526    5.4956  -17.4979 N   0  0  0  0  0  0  0  0  0  0  0  0
   -4.0731    5.8851  -16.5338 N   0  0  0  0  0  0  0  0  0  0  0  0
   -4.7765    5.7774  -15.4039 C   0  0  0  0  0  0  0  0  0  0  0  0
   -6.0714    5.2618  -15.6102 C   0  0  0  0  0  0  0  0  0  0  0  0
   -7.2016    4.9498  -14.8398 C   0  0  0  0  0  0  0  0  0  0  0  0
   -7.2055    5.3194  -13.4027 C   0  0  0  0  0  0  0  0  0  0  0  0
   -6.6660    6.3175  -13.1230 O   0  0  0  0  0  0  0  0  0  0  0  0
   -7.9506    4.2958  -12.5090 N   0  0  0  0  0  0  0  0  0  0  0  0
   -8.0997    4.2419  -11.1135 C   0  0  0  0  0  0  0  0  0  0  0  0
   -8.6747    3.0949  -10.5514 C   0  0  0  0  0  0  0  0  0  0  0  0
   -8.8113    3.0501   -9.1704 C   0  0  0  0  0  0  0  0  0  0  0  0
   -8.3854    4.0782   -8.3308 C   0  0  0  0  0  0  0  0  0  0  0  0
   -7.8303    5.2186   -8.8684 C   0  0  0  0  0  0  0  0  0  0  0  0
   -7.7003    5.2953  -10.2584 C   0  0  0  0  0  0  0  0  0  0  0  0
   -7.1932    6.4364  -10.7391 F   0  0  0  0  0  0  0  0  0  0  0  0
   -8.6487    3.7253   -6.9073 C   0  0  0  0  0  0  0  0  0  0  0  0
   -9.3088    2.4557   -7.0153 N   0  0  0  0  0  0  0  0  0  0  0  0
   -9.4209    2.0213   -8.3186 C   0  0  0  0  0  0  0  0  0  0  0  0
   -9.9659    1.0077   -8.6965 O   0  0  0  0  0  0  0  0  0  0  0  0
   -8.3203    4.4382  -15.5054 C   0  0  0  0  0  0  0  0  0  0  0  0
   -8.2932    4.2676  -16.8952 C   0  0  0  0  0  0  0  0  0  0  0  0
   -9.5392    3.7985  -17.6212 C   0  0  0  0  0  0  0  0  0  0  0  0
   -9.7106    4.0321  -19.1026 C   0  0  0  0  0  0  0  0  0  0  0  0
   -9.4528    2.6471  -18.5939 C   0  0  0  0  0  0  0  0  0  0  0  0
   -7.2070    4.5748  -17.6435 N   0  0  0  0  0  0  0  0  0  0  0  0
   -6.1496    5.0622  -16.9764 C   0  0  0  0  0  0  0  0  0  0  0  0
  2  1  1  6
  2  3  1  0
  3  4  1  0
  4  5  1  0
  2  6  1  0
  6  7  1  0
  7  8  2  0
  8  9  1  0
  9 10  2  0
 10 11  1  0
 11 12  2  0
 11 13  1  0
 13 14  1  0
 14 15  2  0
 15 16  1  0
 16 17  2  0
 17 18  1  0
 18 19  2  0
 19 20  1  0
 17 21  1  0
 21 22  1  0
 22 23  1  0
 23 24  2  0
 10 25  1  0
 25 26  2  0
 26 27  1  0
 27 28  1  0
 28 29  1  0
 26 30  1  0
 30 31  2  0
  5  3  1  0
 31  6  1  0
 31  9  1  0
 19 14  1  0
 29 27  1  0
 23 16  1  0
M  END
>  <name>  (602) 
P125384

>  <alias>  (602) 
None

>  <smina_score_min>  (602) 
-8.985

>  <exports>  (602) 
['/opt/xchem-fragalysis-2/maxwin/BulkDock/OUTPUTS/openbind_xx01zvns2b_c2_elabs_1LOUTNY.sdf', '/opt/xchem-fragalysis-2/maxwin/BulkDock/OUTPUTS/openbind_xx01zvns2b_c2_elabs_1LSYIIV.sdf']

>  <tags>  (602) 
syndirella_placed,openbind_xx01zvns2b_c2_elabs,openbind_xx01zvns2b_c2_elabs_scored_6.2plus,syndirella_product,openbind_xx01zvns2b_c2_elabs_scored,openbind_xx01zvns2b_c2_elabs_scored_top80percent,BulkDock Fragalysis export

>  <subsites>  (602) 
1 - Z4590/B/203/1

>  <smiles>  (602) 
C[C@@H](C1CC1)n1ncc2c(C(=O)Nc3cc4c(cc3F)CNC4=O)cc(C3CC3)nc21

>  <HIPPO Pose ID>  (602) 
125384

>  <energy_score>  (602) 
-47.778849

>  <inchikey>  (602) 
QPSMCUUOBBEHTG-NSHDSACASA-N

>  <gnina_score_min>  (602) 
6.292

>  <gnina_score>  (602) 
6.452

>  <ref_mols>  (602) 
Z3559a

>  <HIPPO Compound ID>  (602) 
178756

>  <distance_score>  (602) 
0.355058

>  <rmsd(smina/fragmenstein)>  (602) 
0.946

>  <ref_pdb>  (602) 
Z3559a

>  <inspiration_score>  (602) 
None

$$$$
P125386
     RDKit          3D

 31 36  0  0  0  0  0  0  0  0999 V2000
   -5.7169    6.2901  -19.9039 C   0  0  0  0  0  0  0  0  0  0  0  0
   -4.5096    6.1197  -18.9947 C   0  0  2  0  0  0  0  0  0  0  0  0
   -3.4844    5.2350  -19.6624 C   0  0  0  0  0  0  0  0  0  0  0  0
   -2.0954    5.0373  -19.1040 C   0  0  0  0  0  0  0  0  0  0  0  0
   -2.2864    5.8487  -20.3524 C   0  0  0  0  0  0  0  0  0  0  0  0
   -4.8336    5.7208  -17.6200 N   0  0  0  0  0  0  0  0  0  0  0  0
   -3.9839    6.1509  -16.6447 N   0  0  0  0  0  0  0  0  0  0  0  0
   -4.6560    5.9379  -15.5154 C   0  0  0  0  0  0  0  0  0  0  0  0
   -5.9165    5.3571  -15.7358 C   0  0  0  0  0  0  0  0  0  0  0  0
   -7.0234    4.9959  -14.9630 C   0  0  0  0  0  0  0  0  0  0  0  0
   -7.0470    5.3759  -13.5332 C   0  0  0  0  0  0  0  0  0  0  0  0
   -6.6322    6.4300  -13.2512 O   0  0  0  0  0  0  0  0  0  0  0  0
   -7.6158    4.2527  -12.6402 N   0  0  0  0  0  0  0  0  0  0  0  0
   -7.8724    4.2276  -11.2722 C   0  0  0  0  0  0  0  0  0  0  0  0
   -7.6317    5.3705  -10.4831 C   0  0  0  0  0  0  0  0  0  0  0  0
   -7.8863    5.3642   -9.1113 C   0  0  0  0  0  0  0  0  0  0  0  0
   -8.3748    4.1960   -8.5673 C   0  0  0  0  0  0  0  0  0  0  0  0
   -8.6197    3.0560   -9.3306 C   0  0  0  0  0  0  0  0  0  0  0  0
   -8.3714    3.0551  -10.6939 C   0  0  0  0  0  0  0  0  0  0  0  0
   -9.1831    1.9824   -8.4617 C   0  0  0  0  0  0  0  0  0  0  0  0
   -9.2784    2.6417   -7.1699 N   0  0  0  0  0  0  0  0  0  0  0  0
  -10.0359    2.0749   -6.0855 C   0  0  0  0  0  0  0  0  0  0  0  0
   -8.8110    3.9388   -7.1905 C   0  0  0  0  0  0  0  0  0  0  0  0
   -8.8055    4.7678   -6.2989 O   0  0  0  0  0  0  0  0  0  0  0  0
   -8.1272    4.4450  -15.6136 C   0  0  0  0  0  0  0  0  0  0  0  0
   -8.1117    4.2931  -17.0055 C   0  0  0  0  0  0  0  0  0  0  0  0
   -9.3741    3.7922  -17.6870 C   0  0  0  0  0  0  0  0  0  0  0  0
   -9.3086    2.6415  -18.6591 C   0  0  0  0  0  0  0  0  0  0  0  0
   -9.6129    4.0215  -19.1567 C   0  0  0  0  0  0  0  0  0  0  0  0
   -7.0462    4.6553  -17.7739 N   0  0  0  0  0  0  0  0  0  0  0  0
   -5.9967    5.1778  -17.1077 C   0  0  0  0  0  0  0  0  0  0  0  0
  2  1  1  6
  2  3  1  0
  3  4  1  0
  4  5  1  0
  2  6  1  0
  6  7  1  0
  7  8  2  0
  8  9  1  0
  9 10  2  0
 10 11  1  0
 11 12  2  0
 11 13  1  0
 13 14  1  0
 14 15  2  0
 15 16  1  0
 16 17  2  0
 17 18  1  0
 18 19  2  0
 18 20  1  0
 20 21  1  0
 21 22  1  0
 21 23  1  0
 23 24  2  0
 10 25  1  0
 25 26  2  0
 26 27  1  0
 27 28  1  0
 28 29  1  0
 26 30  1  0
 30 31  2  0
  5  3  1  0
 31  6  1  0
 31  9  1  0
 19 14  1  0
 29 27  1  0
 23 17  1  0
M  END
>  <name>  (603) 
P125386

>  <alias>  (603) 
None

>  <smina_score_min>  (603) 
-9.501

>  <exports>  (603) 
['/opt/xchem-fragalysis-2/maxwin/BulkDock/OUTPUTS/openbind_xx01zvns2b_c2_elabs_1LOUTNY.sdf', '/opt/xchem-fragalysis-2/maxwin/BulkDock/OUTPUTS/openbind_xx01zvns2b_c2_elabs_1LSYIIV.sdf']

>  <tags>  (603) 
syndirella_placed,openbind_xx01zvns2b_c2_elabs,openbind_xx01zvns2b_c2_elabs_scored_6.2plus,syndirella_product,openbind_xx01zvns2b_c2_elabs_scored,openbind_xx01zvns2b_c2_elabs_scored_top80percent,BulkDock Fragalysis export

>  <subsites>  (603) 
1 - Z4590/B/203/1

>  <smiles>  (603) 
C[C@H](C1CC1)n1ncc2c(C(=O)Nc3ccc4c(c3)CN(C)C4=O)cc(C3CC3)nc21

>  <HIPPO Pose ID>  (603) 
125386

>  <energy_score>  (603) 
-44.902015

>  <inchikey>  (603) 
AWHIZWTYKNICNI-CYBMUJFWSA-N

>  <gnina_score_min>  (603) 
6.349

>  <gnina_score>  (603) 
6.383

>  <ref_mols>  (603) 
Z3559a

>  <HIPPO Compound ID>  (603) 
178757

>  <distance_score>  (603) 
0.4469

>  <rmsd(smina/fragmenstein)>  (603) 
0.849

>  <ref_pdb>  (603) 
Z3559a

>  <inspiration_score>  (603) 
None

$$$$
P125388
     RDKit          3D

 31 36  0  0  0  0  0  0  0  0999 V2000
   -5.2606    6.7938  -19.5968 C   0  0  0  0  0  0  0  0  0  0  0  0
   -4.6915    5.5285  -18.9562 C   0  0  1  0  0  0  0  0  0  0  0  0
   -3.2030    5.3142  -19.1869 C   0  0  0  0  0  0  0  0  0  0  0  0
   -2.2692    6.3560  -19.7614 C   0  0  0  0  0  0  0  0  0  0  0  0
   -2.6552    5.1618  -20.5881 C   0  0  0  0  0  0  0  0  0  0  0  0
   -5.0353    5.5089  -17.5255 N   0  0  0  0  0  0  0  0  0  0  0  0
   -4.2102    6.0510  -16.5933 N   0  0  0  0  0  0  0  0  0  0  0  0
   -4.8916    5.8982  -15.4518 C   0  0  0  0  0  0  0  0  0  0  0  0
   -6.1534    5.2920  -15.6361 C   0  0  0  0  0  0  0  0  0  0  0  0
   -7.2711    4.9362  -14.8651 C   0  0  0  0  0  0  0  0  0  0  0  0
   -7.2969    5.2979  -13.4249 C   0  0  0  0  0  0  0  0  0  0  0  0
   -6.8371    6.3352  -13.1415 O   0  0  0  0  0  0  0  0  0  0  0  0
   -7.9473    4.2088  -12.5316 N   0  0  0  0  0  0  0  0  0  0  0  0
   -8.0758    4.1325  -11.1418 C   0  0  0  0  0  0  0  0  0  0  0  0
   -7.5579    5.1665  -10.3296 C   0  0  0  0  0  0  0  0  0  0  0  0
   -7.6155    5.0976   -8.9328 C   0  0  0  0  0  0  0  0  0  0  0  0
   -8.2069    3.9822   -8.3816 C   0  0  0  0  0  0  0  0  0  0  0  0
   -8.7479    2.9805   -9.1681 C   0  0  0  0  0  0  0  0  0  0  0  0
   -8.6923    3.0210  -10.5542 C   0  0  0  0  0  0  0  0  0  0  0  0
   -9.3290    1.9948   -8.2536 C   0  0  0  0  0  0  0  0  0  0  0  0
   -9.9755    1.0240   -8.5855 O   0  0  0  0  0  0  0  0  0  0  0  0
   -9.0585    2.4220   -6.9878 N   0  0  0  0  0  0  0  0  0  0  0  0
   -8.3743    3.5963   -6.9788 C   0  0  0  0  0  0  0  0  0  0  0  0
   -7.9463    4.2211   -6.0252 O   0  0  0  0  0  0  0  0  0  0  0  0
   -8.3728    4.3966  -15.5389 C   0  0  0  0  0  0  0  0  0  0  0  0
   -8.3363    4.2248  -16.9305 C   0  0  0  0  0  0  0  0  0  0  0  0
   -9.5784    3.7653  -17.6640 C   0  0  0  0  0  0  0  0  0  0  0  0
   -9.7217    3.9758  -19.1514 C   0  0  0  0  0  0  0  0  0  0  0  0
   -9.4996    2.5954  -18.6126 C   0  0  0  0  0  0  0  0  0  0  0  0
   -7.2464    4.5304  -17.6742 N   0  0  0  0  0  0  0  0  0  0  0  0
   -6.2168    5.0548  -16.9958 C   0  0  0  0  0  0  0  0  0  0  0  0
  2  1  1  1
  2  3  1  0
  3  4  1  0
  4  5  1  0
  2  6  1  0
  6  7  1  0
  7  8  2  0
  8  9  1  0
  9 10  2  0
 10 11  1  0
 11 12  2  0
 11 13  1  0
 13 14  1  0
 14 15  2  0
 15 16  1  0
 16 17  2  0
 17 18  1  0
 18 19  2  0
 18 20  1  0
 20 21  2  0
 20 22  1  0
 22 23  1  0
 23 24  2  0
 10 25  1  0
 25 26  2  0
 26 27  1  0
 27 28  1  0
 28 29  1  0
 26 30  1  0
 30 31  2  0
  5  3  1  0
 31  6  1  0
 31  9  1  0
 19 14  1  0
 29 27  1  0
 23 17  1  0
M  END
>  <name>  (604) 
P125388

>  <alias>  (604) 
None

>  <smina_score_min>  (604) 
-9.281

>  <exports>  (604) 
['/opt/xchem-fragalysis-2/maxwin/BulkDock/OUTPUTS/openbind_xx01zvns2b_c2_elabs_1LOUTNY.sdf', '/opt/xchem-fragalysis-2/maxwin/BulkDock/OUTPUTS/openbind_xx01zvns2b_c2_elabs_1LSYIIV.sdf']

>  <tags>  (604) 
syndirella_placed,openbind_xx01zvns2b_c2_elabs,openbind_xx01zvns2b_c2_elabs_scored_6.2plus,syndirella_product,openbind_xx01zvns2b_c2_elabs_scored,openbind_xx01zvns2b_c2_elabs_scored_top80percent,BulkDock Fragalysis export

>  <subsites>  (604) 
1 - Z4590/B/203/1

>  <smiles>  (604) 
C[C@@H](C1CC1)n1ncc2c(C(=O)Nc3ccc4c(c3)C(=O)NC4=O)cc(C3CC3)nc21

>  <HIPPO Pose ID>  (604) 
125388

>  <energy_score>  (604) 
-43.837399

>  <inchikey>  (604) 
WYDPTBLFIJFKNR-NSHDSACASA-N

>  <gnina_score_min>  (604) 
6.241

>  <gnina_score>  (604) 
6.357

>  <ref_mols>  (604) 
Z3559a

>  <HIPPO Compound ID>  (604) 
178758

>  <distance_score>  (604) 
0.34642

>  <rmsd(smina/fragmenstein)>  (604) 
0.48

>  <ref_pdb>  (604) 
Z3559a

>  <inspiration_score>  (604) 
None

$$$$
P125390
     RDKit          3D

 31 35  0  0  0  0  0  0  0  0999 V2000
   -5.0468    6.7714  -20.0684 C   0  0  0  0  0  0  0  0  0  0  0  0
   -4.7592    5.4235  -19.4329 C   0  0  0  0  0  0  0  0  0  0  0  0
   -5.0106    5.4310  -18.0075 N   0  0  0  0  0  0  0  0  0  0  0  0
   -4.0830    5.9284  -17.1536 N   0  0  0  0  0  0  0  0  0  0  0  0
   -4.6968    5.8555  -15.9655 C   0  0  0  0  0  0  0  0  0  0  0  0
   -5.9933    5.3035  -16.0511 C   0  0  0  0  0  0  0  0  0  0  0  0
   -7.0692    5.0146  -15.2067 C   0  0  0  0  0  0  0  0  0  0  0  0
   -6.9902    5.4110  -13.7884 C   0  0  0  0  0  0  0  0  0  0  0  0
   -6.4421    6.4099  -13.5344 O   0  0  0  0  0  0  0  0  0  0  0  0
   -7.6408    4.3620  -12.8602 N   0  0  0  0  0  0  0  0  0  0  0  0
   -7.8296    4.3685  -11.4855 C   0  0  0  0  0  0  0  0  0  0  0  0
   -7.3851    5.4682  -10.7253 C   0  0  0  0  0  0  0  0  0  0  0  0
   -7.5011    5.4719   -9.3408 C   0  0  0  0  0  0  0  0  0  0  0  0
   -8.0751    4.3629   -8.7647 C   0  0  0  0  0  0  0  0  0  0  0  0
   -8.5565    3.2779   -9.4977 C   0  0  0  0  0  0  0  0  0  0  0  0
   -8.4337    3.2629  -10.8745 C   0  0  0  0  0  0  0  0  0  0  0  0
   -9.1495    2.2706   -8.5714 C   0  0  0  0  0  0  0  0  0  0  0  0
   -9.0166    2.9354   -7.2863 N   0  0  0  0  0  0  0  0  0  0  0  0
   -9.4155    2.3145   -6.0507 C   0  0  0  0  0  0  0  0  0  0  0  0
  -10.6991    2.9110   -5.4689 C   0  0  0  0  0  0  0  0  0  0  0  0
  -10.6195    4.3053   -5.1516 O   0  0  0  0  0  0  0  0  0  0  0  0
   -9.8095    4.5850   -4.0188 C   0  0  0  0  0  0  0  0  0  0  0  0
   -8.2931    4.1056   -7.3466 C   0  0  0  0  0  0  0  0  0  0  0  0
   -7.8707    4.8134   -6.4503 O   0  0  0  0  0  0  0  0  0  0  0  0
   -8.2270    4.4717  -15.7735 C   0  0  0  0  0  0  0  0  0  0  0  0
   -8.2836    4.2352  -17.1498 C   0  0  0  0  0  0  0  0  0  0  0  0
   -9.5739    3.7508  -17.7671 C   0  0  0  0  0  0  0  0  0  0  0  0
   -9.8280    3.9111  -19.2433 C   0  0  0  0  0  0  0  0  0  0  0  0
   -9.5579    2.5491  -18.6764 C   0  0  0  0  0  0  0  0  0  0  0  0
   -7.2417    4.4914  -17.9763 N   0  0  0  0  0  0  0  0  0  0  0  0
   -6.1593    5.0215  -17.3908 C   0  0  0  0  0  0  0  0  0  0  0  0
  1  2  1  0
  2  3  1  0
  3  4  1  0
  4  5  2  0
  5  6  1  0
  6  7  2  0
  7  8  1  0
  8  9  2  0
  8 10  1  0
 10 11  1  0
 11 12  2  0
 12 13  1  0
 13 14  2  0
 14 15  1  0
 15 16  2  0
 15 17  1  0
 17 18  1  0
 18 19  1  0
 19 20  1  0
 20 21  1  0
 21 22  1  0
 18 23  1  0
 23 24  2  0
  7 25  1  0
 25 26  2  0
 26 27  1  0
 27 28  1  0
 28 29  1  0
 26 30  1  0
 30 31  2  0
 31  3  1  0
 31  6  1  0
 16 11  1  0
 29 27  1  0
 23 14  1  0
M  END
>  <name>  (605) 
P125390

>  <alias>  (605) 
None

>  <smina_score_min>  (605) 
-8.321

>  <exports>  (605) 
['/opt/xchem-fragalysis-2/maxwin/BulkDock/OUTPUTS/openbind_xx01zvns2b_c2_elabs_1LOUTNY.sdf', '/opt/xchem-fragalysis-2/maxwin/BulkDock/OUTPUTS/openbind_xx01zvns2b_c2_elabs_1LSYIIV.sdf']

>  <tags>  (605) 
syndirella_placed,openbind_xx01zvns2b_c2_elabs,openbind_xx01zvns2b_c2_elabs_scored_6.2plus,syndirella_product,openbind_xx01zvns2b_c2_elabs_scored,openbind_xx01zvns2b_c2_elabs_scored_top80percent,BulkDock Fragalysis export

>  <subsites>  (605) 
1 - Z4590/B/203/1

>  <smiles>  (605) 
CCn1ncc2c(C(=O)Nc3ccc4c(c3)CN(CCOC)C4=O)cc(C3CC3)nc21

>  <HIPPO Pose ID>  (605) 
125390

>  <energy_score>  (605) 
-22.405417

>  <inchikey>  (605) 
NIULMKOHECSXNG-UHFFFAOYSA-N

>  <gnina_score_min>  (605) 
6.323

>  <gnina_score>  (605) 
6.296

>  <ref_mols>  (605) 
Z3559a

>  <HIPPO Compound ID>  (605) 
178786

>  <distance_score>  (605) 
0.511465

>  <rmsd(smina/fragmenstein)>  (605) 
0.286

>  <ref_pdb>  (605) 
Z3559a

>  <inspiration_score>  (605) 
None

$$$$
P125391
     RDKit          3D

 31 35  0  0  0  0  0  0  0  0999 V2000
   -5.4947    5.5384  -20.0930 C   0  0  0  0  0  0  0  0  0  0  0  0
   -4.4401    5.5498  -19.0093 C   0  0  0  0  0  0  0  0  0  0  0  0
   -4.9067    5.5314  -17.6389 N   0  0  0  0  0  0  0  0  0  0  0  0
   -4.0724    6.0315  -16.6887 N   0  0  0  0  0  0  0  0  0  0  0  0
   -4.7895    5.9414  -15.5657 C   0  0  0  0  0  0  0  0  0  0  0  0
   -6.0533    5.3580  -15.7731 C   0  0  0  0  0  0  0  0  0  0  0  0
   -7.1853    5.0423  -15.0193 C   0  0  0  0  0  0  0  0  0  0  0  0
   -7.2563    5.4721  -13.6124 C   0  0  0  0  0  0  0  0  0  0  0  0
   -6.9164    6.5592  -13.3572 O   0  0  0  0  0  0  0  0  0  0  0  0
   -7.8179    4.3596  -12.7017 N   0  0  0  0  0  0  0  0  0  0  0  0
   -7.9843    4.3200  -11.3216 C   0  0  0  0  0  0  0  0  0  0  0  0
   -7.7770    5.4793  -10.5560 C   0  0  0  0  0  0  0  0  0  0  0  0
   -7.9386    5.4591   -9.1733 C   0  0  0  0  0  0  0  0  0  0  0  0
   -8.3044    4.2659   -8.5825 C   0  0  0  0  0  0  0  0  0  0  0  0
   -8.5074    3.1127   -9.3316 C   0  0  0  0  0  0  0  0  0  0  0  0
   -8.3574    3.1206  -10.7089 C   0  0  0  0  0  0  0  0  0  0  0  0
   -8.8832    1.9861   -8.4226 C   0  0  0  0  0  0  0  0  0  0  0  0
   -8.9168    2.5705   -7.0550 N   0  0  0  0  0  0  0  0  0  0  0  0
  -10.1683    2.2559   -6.3516 C   0  0  0  0  0  0  0  0  0  0  0  0
  -10.5619    3.0271   -5.0856 C   0  0  0  0  0  0  0  0  0  0  0  0
  -10.9267    4.3018   -5.3864 F   0  0  0  0  0  0  0  0  0  0  0  0
   -9.5783    3.1146   -4.1670 F   0  0  0  0  0  0  0  0  0  0  0  0
  -11.6440    2.4579   -4.5026 F   0  0  0  0  0  0  0  0  0  0  0  0
   -8.5736    3.9955   -7.1441 C   0  0  0  0  0  0  0  0  0  0  0  0
   -8.2797    4.4695  -15.6687 C   0  0  0  0  0  0  0  0  0  0  0  0
   -8.2296    4.2474  -17.0468 C   0  0  0  0  0  0  0  0  0  0  0  0
   -9.4803    3.7640  -17.7525 C   0  0  0  0  0  0  0  0  0  0  0  0
   -9.6368    3.9233  -19.2426 C   0  0  0  0  0  0  0  0  0  0  0  0
   -9.4252    2.5602  -18.6564 C   0  0  0  0  0  0  0  0  0  0  0  0
   -7.1307    4.5321  -17.7906 N   0  0  0  0  0  0  0  0  0  0  0  0
   -6.0995    5.0834  -17.1275 C   0  0  0  0  0  0  0  0  0  0  0  0
  1  2  1  0
  2  3  1  0
  3  4  1  0
  4  5  2  0
  5  6  1  0
  6  7  2  0
  7  8  1  0
  8  9  2  0
  8 10  1  0
 10 11  1  0
 11 12  2  0
 12 13  1  0
 13 14  2  0
 14 15  1  0
 15 16  2  0
 15 17  1  0
 17 18  1  0
 18 19  1  0
 19 20  1  0
 20 21  1  0
 20 22  1  0
 20 23  1  0
 18 24  1  0
  7 25  1  0
 25 26  2  0
 26 27  1  0
 27 28  1  0
 28 29  1  0
 26 30  1  0
 30 31  2  0
 31  3  1  0
 31  6  1  0
 16 11  1  0
 29 27  1  0
 24 14  1  0
M  END
>  <name>  (606) 
P125391

>  <alias>  (606) 
None

>  <smina_score_min>  (606) 
-9.389

>  <exports>  (606) 
['/opt/xchem-fragalysis-2/maxwin/BulkDock/OUTPUTS/openbind_xx01zvns2b_c2_elabs_1LOUTNY.sdf', '/opt/xchem-fragalysis-2/maxwin/BulkDock/OUTPUTS/openbind_xx01zvns2b_c2_elabs_1LSYIIV.sdf']

>  <tags>  (606) 
syndirella_placed,openbind_xx01zvns2b_c2_elabs,openbind_xx01zvns2b_c2_elabs_scored_6.2plus,syndirella_product,openbind_xx01zvns2b_c2_elabs_scored,openbind_xx01zvns2b_c2_elabs_scored_top80percent,BulkDock Fragalysis export

>  <subsites>  (606) 
1 - Z4590/B/203/1

>  <smiles>  (606) 
CCn1ncc2c(C(=O)Nc3ccc4c(c3)CN(CC(F)(F)F)C4)cc(C3CC3)nc21

>  <HIPPO Pose ID>  (606) 
125391

>  <energy_score>  (606) 
-33.102015

>  <inchikey>  (606) 
DMJPRZFQCFYIMO-UHFFFAOYSA-N

>  <gnina_score_min>  (606) 
6.436

>  <gnina_score>  (606) 
6.412

>  <ref_mols>  (606) 
Z3559a

>  <HIPPO Compound ID>  (606) 
178778

>  <distance_score>  (606) 
0.401999

>  <rmsd(smina/fragmenstein)>  (606) 
0.37

>  <ref_pdb>  (606) 
Z3559a

>  <inspiration_score>  (606) 
None

$$$$
P125393
     RDKit          3D

 31 36  0  0  0  0  0  0  0  0999 V2000
  -10.8925    3.1351   -5.5872 C   0  0  0  0  0  0  0  0  0  0  0  0
   -9.5693    2.4623   -5.8966 C   0  0  0  0  0  0  0  0  0  0  0  0
   -8.8437    2.9204   -7.0526 N   0  0  0  0  0  0  0  0  0  0  0  0
   -8.5605    4.3376   -7.1901 C   0  0  0  0  0  0  0  0  0  0  0  0
   -8.3267    4.5179   -8.6525 C   0  0  0  0  0  0  0  0  0  0  0  0
   -7.9021    5.6499   -9.3142 C   0  0  0  0  0  0  0  0  0  0  0  0
   -7.7992    5.5913  -10.7018 C   0  0  0  0  0  0  0  0  0  0  0  0
   -8.1081    4.4141  -11.4084 C   0  0  0  0  0  0  0  0  0  0  0  0
   -7.9730    4.3934  -12.7968 N   0  0  0  0  0  0  0  0  0  0  0  0
   -7.4581    5.4770  -13.7715 C   0  0  0  0  0  0  0  0  0  0  0  0
   -7.1389    6.5832  -13.5740 O   0  0  0  0  0  0  0  0  0  0  0  0
   -7.3142    4.9823  -15.1557 C   0  0  0  0  0  0  0  0  0  0  0  0
   -8.3307    4.3050  -15.8398 C   0  0  0  0  0  0  0  0  0  0  0  0
   -8.1720    4.0237  -17.2017 C   0  0  0  0  0  0  0  0  0  0  0  0
   -9.2492    3.3317  -18.0016 C   0  0  0  0  0  0  0  0  0  0  0  0
   -9.6120    3.9764  -19.3227 C   0  0  0  0  0  0  0  0  0  0  0  0
  -10.6160    3.9238  -18.2246 C   0  0  0  0  0  0  0  0  0  0  0  0
   -7.0636    4.3694  -17.9038 N   0  0  0  0  0  0  0  0  0  0  0  0
   -6.1226    5.0200  -17.2069 C   0  0  0  0  0  0  0  0  0  0  0  0
   -6.1630    5.3458  -15.8678 C   0  0  0  0  0  0  0  0  0  0  0  0
   -4.9500    6.0301  -15.6396 C   0  0  0  0  0  0  0  0  0  0  0  0
   -4.2040    6.1502  -16.7439 N   0  0  0  0  0  0  0  0  0  0  0  0
   -4.9475    5.5321  -17.6916 N   0  0  0  0  0  0  0  0  0  0  0  0
   -4.5457    5.5355  -19.0785 C   0  0  0  0  0  0  0  0  0  0  0  0
   -4.9826    6.7934  -19.8277 C   0  0  0  0  0  0  0  0  0  0  0  0
   -4.1207    6.8099  -21.0890 C   0  0  0  0  0  0  0  0  0  0  0  0
   -2.9455    5.8673  -20.8199 C   0  0  0  0  0  0  0  0  0  0  0  0
   -3.0393    5.5075  -19.3425 C   0  0  0  0  0  0  0  0  0  0  0  0
   -8.5392    3.2724  -10.7238 C   0  0  0  0  0  0  0  0  0  0  0  0
   -8.6536    3.3466   -9.3416 C   0  0  0  0  0  0  0  0  0  0  0  0
   -9.1556    2.3282   -8.3593 C   0  0  0  0  0  0  0  0  0  0  0  0
  1  2  1  0
  2  3  1  0
  3  4  1  0
  4  5  1  0
  5  6  2  0
  6  7  1  0
  7  8  2  0
  8  9  1  0
  9 10  1  0
 10 11  2  0
 10 12  1  0
 12 13  2  0
 13 14  1  0
 14 15  1  0
 15 16  1  0
 16 17  1  0
 14 18  2  0
 18 19  1  0
 19 20  2  0
 20 21  1  0
 21 22  2  0
 22 23  1  0
 23 24  1  0
 24 25  1  0
 25 26  1  0
 26 27  1  0
 27 28  1  0
  8 29  1  0
 29 30  2  0
 30 31  1  0
 31  3  1  0
 30  5  1  0
 20 12  1  0
 28 24  1  0
 17 15  1  0
 23 19  1  0
M  END
>  <name>  (607) 
P125393

>  <alias>  (607) 
None

>  <smina_score_min>  (607) 
-9.683

>  <exports>  (607) 
['/opt/xchem-fragalysis-2/maxwin/BulkDock/OUTPUTS/openbind_xx01zvns2b_c2_elabs_1LOUTNY.sdf', '/opt/xchem-fragalysis-2/maxwin/BulkDock/OUTPUTS/openbind_xx01zvns2b_c2_elabs_1LSYIIV.sdf']

>  <tags>  (607) 
syndirella_placed,openbind_xx01zvns2b_c2_elabs,openbind_xx01zvns2b_c2_elabs_scored_6.2plus,syndirella_product,openbind_xx01zvns2b_c2_elabs_scored,openbind_xx01zvns2b_c2_elabs_scored_top80percent,BulkDock Fragalysis export

>  <subsites>  (607) 
1 - Z4590/B/203/1

>  <smiles>  (607) 
CCN1Cc2ccc(NC(=O)c3cc(C4CC4)nc4c3cnn4C3CCCC3)cc2C1

>  <HIPPO Pose ID>  (607) 
125393

>  <energy_score>  (607) 
-46.542338

>  <inchikey>  (607) 
ZAQXPLQYRARVBM-UHFFFAOYSA-N

>  <gnina_score_min>  (607) 
6.561

>  <gnina_score>  (607) 
6.543

>  <ref_mols>  (607) 
Z3559a

>  <HIPPO Compound ID>  (607) 
178630

>  <distance_score>  (607) 
0.614932

>  <rmsd(smina/fragmenstein)>  (607) 
1.055

>  <ref_pdb>  (607) 
Z3559a

>  <inspiration_score>  (607) 
None

$$$$
P125395
     RDKit          3D

 31 36  0  0  0  0  0  0  0  0999 V2000
   -9.9676    1.0330   -8.7341 O   0  0  0  0  0  0  0  0  0  0  0  0
   -9.4251    2.0481   -8.3570 C   0  0  0  0  0  0  0  0  0  0  0  0
   -9.3307    2.4923   -7.0554 N   0  0  0  0  0  0  0  0  0  0  0  0
   -8.6537    3.7531   -6.9466 C   0  0  0  0  0  0  0  0  0  0  0  0
   -8.3669    4.0932   -8.3687 C   0  0  0  0  0  0  0  0  0  0  0  0
   -7.7727    5.2143   -8.9051 C   0  0  0  0  0  0  0  0  0  0  0  0
   -7.5985    5.2690  -10.2918 C   0  0  0  0  0  0  0  0  0  0  0  0
   -6.9946    6.3655  -10.7639 F   0  0  0  0  0  0  0  0  0  0  0  0
   -8.0075    4.2192  -11.1464 C   0  0  0  0  0  0  0  0  0  0  0  0
   -7.7919    4.2331  -12.5348 N   0  0  0  0  0  0  0  0  0  0  0  0
   -7.2533    5.3551  -13.4586 C   0  0  0  0  0  0  0  0  0  0  0  0
   -6.8337    6.4141  -13.1983 O   0  0  0  0  0  0  0  0  0  0  0  0
   -7.2343    4.9672  -14.8876 C   0  0  0  0  0  0  0  0  0  0  0  0
   -8.3406    4.4187  -15.5445 C   0  0  0  0  0  0  0  0  0  0  0  0
   -8.3125    4.2344  -16.9347 C   0  0  0  0  0  0  0  0  0  0  0  0
   -9.5607    3.7667  -17.6547 C   0  0  0  0  0  0  0  0  0  0  0  0
   -9.4843    2.6035  -18.6122 C   0  0  0  0  0  0  0  0  0  0  0  0
   -9.7257    3.9852  -19.1390 C   0  0  0  0  0  0  0  0  0  0  0  0
   -7.2273    4.5340  -17.6910 N   0  0  0  0  0  0  0  0  0  0  0  0
   -6.1915    5.0611  -17.0210 C   0  0  0  0  0  0  0  0  0  0  0  0
   -6.1188    5.3081  -15.6642 C   0  0  0  0  0  0  0  0  0  0  0  0
   -4.8522    5.9050  -15.4875 C   0  0  0  0  0  0  0  0  0  0  0  0
   -4.1745    6.0399  -16.6333 N   0  0  0  0  0  0  0  0  0  0  0  0
   -5.0109    5.5093  -17.5558 N   0  0  0  0  0  0  0  0  0  0  0  0
   -4.6872    5.5320  -18.9631 C   0  0  0  0  0  0  0  0  0  0  0  0
   -3.1989    5.5516  -19.3169 C   0  0  0  0  0  0  0  0  0  0  0  0
   -3.2063    5.9194  -20.7950 C   0  0  0  0  0  0  0  0  0  0  0  0
   -4.4130    6.8413  -20.9805 C   0  0  0  0  0  0  0  0  0  0  0  0
   -5.2029    6.7822  -19.6742 C   0  0  0  0  0  0  0  0  0  0  0  0
   -8.6234    3.0924  -10.5851 C   0  0  0  0  0  0  0  0  0  0  0  0
   -8.7937    3.0650   -9.2073 C   0  0  0  0  0  0  0  0  0  0  0  0
  1  2  2  0
  2  3  1  0
  3  4  1  0
  4  5  1  0
  5  6  2  0
  6  7  1  0
  7  8  1  0
  7  9  2  0
  9 10  1  0
 10 11  1  0
 11 12  2  0
 11 13  1  0
 13 14  2  0
 14 15  1  0
 15 16  1  0
 16 17  1  0
 17 18  1  0
 15 19  2  0
 19 20  1  0
 20 21  2  0
 21 22  1  0
 22 23  2  0
 23 24  1  0
 24 25  1  0
 25 26  1  0
 26 27  1  0
 27 28  1  0
 28 29  1  0
  9 30  1  0
 30 31  2  0
 31  2  1  0
 31  5  1  0
 21 13  1  0
 29 25  1  0
 18 16  1  0
 24 20  1  0
M  END
>  <name>  (608) 
P125395

>  <alias>  (608) 
None

>  <smina_score_min>  (608) 
-9.49

>  <exports>  (608) 
['/opt/xchem-fragalysis-2/maxwin/BulkDock/OUTPUTS/openbind_xx01zvns2b_c2_elabs_1LOUTNY.sdf', '/opt/xchem-fragalysis-2/maxwin/BulkDock/OUTPUTS/openbind_xx01zvns2b_c2_elabs_1LSYIIV.sdf']

>  <tags>  (608) 
syndirella_placed,openbind_xx01zvns2b_c2_elabs,openbind_xx01zvns2b_c2_elabs_scored_6.2plus,syndirella_product,openbind_xx01zvns2b_c2_elabs_scored,openbind_xx01zvns2b_c2_elabs_scored_top80percent,BulkDock Fragalysis export

>  <subsites>  (608) 
1 - Z4590/B/203/1

>  <smiles>  (608) 
O=C1NCc2cc(F)c(NC(=O)c3cc(C4CC4)nc4c3cnn4C3CCCC3)cc21

>  <HIPPO Pose ID>  (608) 
125395

>  <energy_score>  (608) 
-44.291171

>  <inchikey>  (608) 
JSCMNCQQLRPLLE-UHFFFAOYSA-N

>  <gnina_score_min>  (608) 
6.526

>  <gnina_score>  (608) 
6.458

>  <ref_mols>  (608) 
Z3559a

>  <HIPPO Compound ID>  (608) 
178593

>  <distance_score>  (608) 
0.359846

>  <rmsd(smina/fragmenstein)>  (608) 
0.813

>  <ref_pdb>  (608) 
Z3559a

>  <inspiration_score>  (608) 
None

$$$$
P125396
     RDKit          3D

 31 36  0  0  0  0  0  0  0  0999 V2000
  -10.0047    2.0946   -6.1061 C   0  0  0  0  0  0  0  0  0  0  0  0
   -9.2569    2.6621   -7.1969 N   0  0  0  0  0  0  0  0  0  0  0  0
   -9.1812    2.0069   -8.4918 C   0  0  0  0  0  0  0  0  0  0  0  0
   -8.6162    3.0788   -9.3619 C   0  0  0  0  0  0  0  0  0  0  0  0
   -8.3872    3.0832  -10.7285 C   0  0  0  0  0  0  0  0  0  0  0  0
   -7.8825    4.2530  -11.3096 C   0  0  0  0  0  0  0  0  0  0  0  0
   -7.6555    4.2770  -12.6832 N   0  0  0  0  0  0  0  0  0  0  0  0
   -7.0785    5.3907  -13.5859 C   0  0  0  0  0  0  0  0  0  0  0  0
   -6.6319    6.4334  -13.3095 O   0  0  0  0  0  0  0  0  0  0  0  0
   -7.1000    5.0082  -15.0150 C   0  0  0  0  0  0  0  0  0  0  0  0
   -8.2290    4.4524  -15.6277 C   0  0  0  0  0  0  0  0  0  0  0  0
   -8.2460    4.2471  -17.0129 C   0  0  0  0  0  0  0  0  0  0  0  0
   -9.5166    3.7621  -17.6786 C   0  0  0  0  0  0  0  0  0  0  0  0
   -9.7443    3.9712  -19.1549 C   0  0  0  0  0  0  0  0  0  0  0  0
   -9.4686    2.5941  -18.6317 C   0  0  0  0  0  0  0  0  0  0  0  0
   -7.1848    4.5375  -17.8051 N   0  0  0  0  0  0  0  0  0  0  0  0
   -6.1283    5.0763  -17.1778 C   0  0  0  0  0  0  0  0  0  0  0  0
   -6.0103    5.3382  -15.8266 C   0  0  0  0  0  0  0  0  0  0  0  0
   -4.7372    5.9292  -15.6929 C   0  0  0  0  0  0  0  0  0  0  0  0
   -4.0948    6.0488  -16.8598 N   0  0  0  0  0  0  0  0  0  0  0  0
   -4.9687    5.5259  -17.7551 N   0  0  0  0  0  0  0  0  0  0  0  0
   -4.6999    5.5895  -19.1828 C   0  0  0  0  0  0  0  0  0  0  0  0
   -3.2298    5.3353  -19.5618 C   0  0  0  0  0  0  0  0  0  0  0  0
   -2.6686    6.7074  -19.9053 C   0  0  0  0  0  0  0  0  0  0  0  0
   -3.8386    7.3912  -20.5898 C   0  0  0  0  0  0  0  0  0  0  0  0
   -5.0434    6.9764  -19.7549 C   0  0  0  0  0  0  0  0  0  0  0  0
   -7.6151    5.3879  -10.5191 C   0  0  0  0  0  0  0  0  0  0  0  0
   -7.8525    5.3770   -9.1433 C   0  0  0  0  0  0  0  0  0  0  0  0
   -8.3487    4.2123   -8.5971 C   0  0  0  0  0  0  0  0  0  0  0  0
   -8.7719    3.9529   -7.2161 C   0  0  0  0  0  0  0  0  0  0  0  0
   -8.7433    4.7759   -6.3193 O   0  0  0  0  0  0  0  0  0  0  0  0
  1  2  1  0
  2  3  1  0
  3  4  1  0
  4  5  2  0
  5  6  1  0
  6  7  1  0
  7  8  1  0
  8  9  2  0
  8 10  1  0
 10 11  2  0
 11 12  1  0
 12 13  1  0
 13 14  1  0
 14 15  1  0
 12 16  2  0
 16 17  1  0
 17 18  2  0
 18 19  1  0
 19 20  2  0
 20 21  1  0
 21 22  1  0
 22 23  1  0
 23 24  1  0
 24 25  1  0
 25 26  1  0
  6 27  2  0
 27 28  1  0
 28 29  2  0
 29 30  1  0
 30 31  2  0
 30  2  1  0
 29  4  1  0
 18 10  1  0
 26 22  1  0
 15 13  1  0
 21 17  1  0
M  END
>  <name>  (609) 
P125396

>  <alias>  (609) 
None

>  <smina_score_min>  (609) 
-9.592

>  <exports>  (609) 
['/opt/xchem-fragalysis-2/maxwin/BulkDock/OUTPUTS/openbind_xx01zvns2b_c2_elabs_1LOUTNY.sdf', '/opt/xchem-fragalysis-2/maxwin/BulkDock/OUTPUTS/openbind_xx01zvns2b_c2_elabs_1LSYIIV.sdf']

>  <tags>  (609) 
syndirella_placed,openbind_xx01zvns2b_c2_elabs,openbind_xx01zvns2b_c2_elabs_scored_6.2plus,syndirella_product,openbind_xx01zvns2b_c2_elabs_scored,openbind_xx01zvns2b_c2_elabs_scored_top80percent,BulkDock Fragalysis export

>  <subsites>  (609) 
1 - Z4590/B/203/1

>  <smiles>  (609) 
CN1Cc2cc(NC(=O)c3cc(C4CC4)nc4c3cnn4C3CCCC3)ccc2C1=O

>  <HIPPO Pose ID>  (609) 
125396

>  <energy_score>  (609) 
-21.478828

>  <inchikey>  (609) 
GGBRPWHZXCBBAP-UHFFFAOYSA-N

>  <gnina_score_min>  (609) 
6.398

>  <gnina_score>  (609) 
6.386

>  <ref_mols>  (609) 
Z3559a

>  <HIPPO Compound ID>  (609) 
178594

>  <distance_score>  (609) 
0.377669

>  <rmsd(smina/fragmenstein)>  (609) 
0.198

>  <ref_pdb>  (609) 
Z3559a

>  <inspiration_score>  (609) 
None

$$$$
P125397
     RDKit          3D

 31 36  0  0  0  0  0  0  0  0999 V2000
   -8.0001    4.2505   -6.0377 O   0  0  0  0  0  0  0  0  0  0  0  0
   -8.4047    3.6156   -6.9947 C   0  0  0  0  0  0  0  0  0  0  0  0
   -9.0748    2.4336   -7.0089 N   0  0  0  0  0  0  0  0  0  0  0  0
   -9.3294    2.0029   -8.2768 C   0  0  0  0  0  0  0  0  0  0  0  0
   -9.9704    1.0302   -8.6136 O   0  0  0  0  0  0  0  0  0  0  0  0
   -8.7422    2.9893   -9.1867 C   0  0  0  0  0  0  0  0  0  0  0  0
   -8.6589    3.0214  -10.5717 C   0  0  0  0  0  0  0  0  0  0  0  0
   -8.0311    4.1298  -11.1535 C   0  0  0  0  0  0  0  0  0  0  0  0
   -7.8417    4.1809  -12.5376 N   0  0  0  0  0  0  0  0  0  0  0  0
   -7.1507    5.2530  -13.4210 C   0  0  0  0  0  0  0  0  0  0  0  0
   -6.5661    6.2204  -13.1206 O   0  0  0  0  0  0  0  0  0  0  0  0
   -7.1915    4.9300  -14.8730 C   0  0  0  0  0  0  0  0  0  0  0  0
   -8.3202    4.4096  -15.5202 C   0  0  0  0  0  0  0  0  0  0  0  0
   -8.3258    4.2462  -16.9143 C   0  0  0  0  0  0  0  0  0  0  0  0
   -9.5814    3.7795  -17.6199 C   0  0  0  0  0  0  0  0  0  0  0  0
   -9.7748    4.0180  -19.0980 C   0  0  0  0  0  0  0  0  0  0  0  0
   -9.5066    2.6316  -18.5974 C   0  0  0  0  0  0  0  0  0  0  0  0
   -7.2588    4.5563  -17.6871 N   0  0  0  0  0  0  0  0  0  0  0  0
   -6.2018    5.0550  -17.0343 C   0  0  0  0  0  0  0  0  0  0  0  0
   -6.0906    5.2730  -15.6755 C   0  0  0  0  0  0  0  0  0  0  0  0
   -4.8036    5.8362  -15.5262 C   0  0  0  0  0  0  0  0  0  0  0  0
   -4.1505    5.9733  -16.6872 N   0  0  0  0  0  0  0  0  0  0  0  0
   -5.0279    5.4845  -17.5971 N   0  0  0  0  0  0  0  0  0  0  0  0
   -4.7389    5.4942  -19.0228 C   0  0  0  0  0  0  0  0  0  0  0  0
   -3.2507    5.4161  -19.3802 C   0  0  0  0  0  0  0  0  0  0  0  0
   -2.7640    6.8628  -19.4820 C   0  0  0  0  0  0  0  0  0  0  0  0
   -4.0113    7.7435  -19.4999 C   0  0  0  0  0  0  0  0  0  0  0  0
   -5.1834    6.7916  -19.6969 C   0  0  0  0  0  0  0  0  0  0  0  0
   -7.5432    5.1758  -10.3381 C   0  0  0  0  0  0  0  0  0  0  0  0
   -7.6305    5.1164   -8.9424 C   0  0  0  0  0  0  0  0  0  0  0  0
   -8.2217    3.9986   -8.3961 C   0  0  0  0  0  0  0  0  0  0  0  0
  1  2  2  0
  2  3  1  0
  3  4  1  0
  4  5  2  0
  4  6  1  0
  6  7  2  0
  7  8  1  0
  8  9  1  0
  9 10  1  0
 10 11  2  0
 10 12  1  0
 12 13  2  0
 13 14  1  0
 14 15  1  0
 15 16  1  0
 16 17  1  0
 14 18  2  0
 18 19  1  0
 19 20  2  0
 20 21  1  0
 21 22  2  0
 22 23  1  0
 23 24  1  0
 24 25  1  0
 25 26  1  0
 26 27  1  0
 27 28  1  0
  8 29  2  0
 29 30  1  0
 30 31  2  0
 31  2  1  0
 31  6  1  0
 20 12  1  0
 28 24  1  0
 17 15  1  0
 23 19  1  0
M  END
>  <name>  (610) 
P125397

>  <alias>  (610) 
None

>  <smina_score_min>  (610) 
-9.359

>  <exports>  (610) 
['/opt/xchem-fragalysis-2/maxwin/BulkDock/OUTPUTS/openbind_xx01zvns2b_c2_elabs_1LOUTNY.sdf', '/opt/xchem-fragalysis-2/maxwin/BulkDock/OUTPUTS/openbind_xx01zvns2b_c2_elabs_1LSYIIV.sdf']

>  <tags>  (610) 
syndirella_placed,openbind_xx01zvns2b_c2_elabs,openbind_xx01zvns2b_c2_elabs_scored_6.2plus,syndirella_product,openbind_xx01zvns2b_c2_elabs_scored,openbind_xx01zvns2b_c2_elabs_scored_top80percent,BulkDock Fragalysis export

>  <subsites>  (610) 
1 - Z4590/B/203/1

>  <smiles>  (610) 
O=C1NC(=O)c2cc(NC(=O)c3cc(C4CC4)nc4c3cnn4C3CCCC3)ccc21

>  <HIPPO Pose ID>  (610) 
125397

>  <energy_score>  (610) 
-49.642772

>  <inchikey>  (610) 
LDKNKUJAZMLKNK-UHFFFAOYSA-N

>  <gnina_score_min>  (610) 
6.265

>  <gnina_score>  (610) 
6.332

>  <ref_mols>  (610) 
Z3559a

>  <HIPPO Compound ID>  (610) 
178595

>  <distance_score>  (610) 
0.325833

>  <rmsd(smina/fragmenstein)>  (610) 
0.642

>  <ref_pdb>  (610) 
Z3559a

>  <inspiration_score>  (610) 
None

$$$$
P125401
     RDKit          3D

 31 35  0  0  0  0  0  0  0  0999 V2000
   -5.2604    6.8010  -19.9971 C   0  0  0  0  0  0  0  0  0  0  0  0
   -4.6913    5.5272  -19.3753 C   0  0  0  0  0  0  0  0  0  0  0  0
   -3.2017    5.3953  -19.7085 C   0  0  0  0  0  0  0  0  0  0  0  0
   -4.9575    5.5009  -17.9421 N   0  0  0  0  0  0  0  0  0  0  0  0
   -4.0831    6.0571  -17.0670 N   0  0  0  0  0  0  0  0  0  0  0  0
   -4.7105    5.9483  -15.8921 C   0  0  0  0  0  0  0  0  0  0  0  0
   -5.9793    5.3450  -16.0049 C   0  0  0  0  0  0  0  0  0  0  0  0
   -7.0617    5.0359  -15.1777 C   0  0  0  0  0  0  0  0  0  0  0  0
   -7.0224    5.4850  -13.7767 C   0  0  0  0  0  0  0  0  0  0  0  0
   -6.5890    6.5491  -13.5690 O   0  0  0  0  0  0  0  0  0  0  0  0
   -7.5498    4.4112  -12.8009 N   0  0  0  0  0  0  0  0  0  0  0  0
   -7.7357    4.4557  -11.4253 C   0  0  0  0  0  0  0  0  0  0  0  0
   -7.2758    5.5773  -10.7101 C   0  0  0  0  0  0  0  0  0  0  0  0
   -7.3997    5.6513   -9.3293 C   0  0  0  0  0  0  0  0  0  0  0  0
   -8.0032    4.5932   -8.6930 C   0  0  0  0  0  0  0  0  0  0  0  0
   -8.4864    3.4821   -9.3942 C   0  0  0  0  0  0  0  0  0  0  0  0
   -8.3498    3.3874  -10.7674 C   0  0  0  0  0  0  0  0  0  0  0  0
   -9.1215    2.5421   -8.4150 C   0  0  0  0  0  0  0  0  0  0  0  0
   -9.3080    3.4055   -7.2179 N   0  0  0  0  0  0  0  0  0  0  0  0
   -9.3742    2.6715   -5.9631 C   0  0  0  0  0  0  0  0  0  0  0  0
  -10.7172    1.9791   -5.8178 C   0  0  0  0  0  0  0  0  0  0  0  0
  -11.0326    1.8279   -4.5142 F   0  0  0  0  0  0  0  0  0  0  0  0
  -10.6745    0.7566   -6.3866 F   0  0  0  0  0  0  0  0  0  0  0  0
   -8.2530    4.4126   -7.2393 C   0  0  0  0  0  0  0  0  0  0  0  0
   -8.1961    4.4628  -15.7547 C   0  0  0  0  0  0  0  0  0  0  0  0
   -8.2265    4.2261  -17.1329 C   0  0  0  0  0  0  0  0  0  0  0  0
   -9.5111    3.7360  -17.7628 C   0  0  0  0  0  0  0  0  0  0  0  0
   -9.4903    2.5394  -18.6778 C   0  0  0  0  0  0  0  0  0  0  0  0
   -9.7584    3.9039  -19.2393 C   0  0  0  0  0  0  0  0  0  0  0  0
   -7.1740    4.4962  -17.9476 N   0  0  0  0  0  0  0  0  0  0  0  0
   -6.1098    5.0523  -17.3467 C   0  0  0  0  0  0  0  0  0  0  0  0
  1  2  1  0
  2  3  1  0
  2  4  1  0
  4  5  1  0
  5  6  2  0
  6  7  1  0
  7  8  2  0
  8  9  1  0
  9 10  2  0
  9 11  1  0
 11 12  1  0
 12 13  2  0
 13 14  1  0
 14 15  2  0
 15 16  1  0
 16 17  2  0
 16 18  1  0
 18 19  1  0
 19 20  1  0
 20 21  1  0
 21 22  1  0
 21 23  1  0
 19 24  1  0
  8 25  1  0
 25 26  2  0
 26 27  1  0
 27 28  1  0
 28 29  1  0
 26 30  1  0
 30 31  2  0
 31  4  1  0
 31  7  1  0
 17 12  1  0
 29 27  1  0
 24 15  1  0
M  END
>  <name>  (611) 
P125401

>  <alias>  (611) 
None

>  <smina_score_min>  (611) 
-9.077

>  <exports>  (611) 
['/opt/xchem-fragalysis-2/maxwin/BulkDock/OUTPUTS/openbind_xx01zvns2b_c2_elabs_1LOUTNY.sdf', '/opt/xchem-fragalysis-2/maxwin/BulkDock/OUTPUTS/openbind_xx01zvns2b_c2_elabs_1LSYIIV.sdf']

>  <tags>  (611) 
syndirella_placed,openbind_xx01zvns2b_c2_elabs,openbind_xx01zvns2b_c2_elabs_scored_6.2plus,syndirella_product,openbind_xx01zvns2b_c2_elabs_scored,openbind_xx01zvns2b_c2_elabs_scored_top80percent,BulkDock Fragalysis export

>  <subsites>  (611) 
1 - Z4590/B/203/1

>  <smiles>  (611) 
CC(C)n1ncc2c(C(=O)Nc3ccc4c(c3)CN(CC(F)F)C4)cc(C3CC3)nc21

>  <HIPPO Pose ID>  (611) 
125401

>  <energy_score>  (611) 
-75.633925

>  <inchikey>  (611) 
JOFUXKRBHPIIJI-UHFFFAOYSA-N

>  <gnina_score_min>  (611) 
6.35

>  <gnina_score>  (611) 
6.266

>  <ref_mols>  (611) 
Z3559a

>  <HIPPO Compound ID>  (611) 
178874

>  <distance_score>  (611) 
0.635391

>  <rmsd(smina/fragmenstein)>  (611) 
0.88

>  <ref_pdb>  (611) 
Z3559a

>  <inspiration_score>  (611) 
None

$$$$
P125402
     RDKit          3D

 31 36  0  0  0  0  0  0  0  0999 V2000
  -10.1413    2.2369   -6.1360 C   0  0  0  0  0  0  0  0  0  0  0  0
   -9.0104    2.5573   -6.9837 N   0  0  0  0  0  0  0  0  0  0  0  0
   -8.7008    3.9905   -7.0553 C   0  0  0  0  0  0  0  0  0  0  0  0
   -8.3780    4.2616   -8.4882 C   0  0  0  0  0  0  0  0  0  0  0  0
   -7.9205    5.4264   -9.0734 C   0  0  0  0  0  0  0  0  0  0  0  0
   -7.7305    5.4394  -10.4578 C   0  0  0  0  0  0  0  0  0  0  0  0
   -8.0057    4.3027  -11.2368 C   0  0  0  0  0  0  0  0  0  0  0  0
   -7.8283    4.3293  -12.6192 N   0  0  0  0  0  0  0  0  0  0  0  0
   -7.2910    5.4485  -13.5417 C   0  0  0  0  0  0  0  0  0  0  0  0
   -6.9855    6.5494  -13.2978 O   0  0  0  0  0  0  0  0  0  0  0  0
   -7.2210    5.0222  -14.9550 C   0  0  0  0  0  0  0  0  0  0  0  0
   -8.3127    4.4454  -15.6104 C   0  0  0  0  0  0  0  0  0  0  0  0
   -8.2691    4.2352  -16.9941 C   0  0  0  0  0  0  0  0  0  0  0  0
   -9.5168    3.7547  -17.7054 C   0  0  0  0  0  0  0  0  0  0  0  0
   -9.4470    2.5771  -18.6431 C   0  0  0  0  0  0  0  0  0  0  0  0
   -9.6847    3.9520  -19.1906 C   0  0  0  0  0  0  0  0  0  0  0  0
   -7.1765    4.5293  -17.7434 N   0  0  0  0  0  0  0  0  0  0  0  0
   -6.1536    5.0838  -17.0735 C   0  0  0  0  0  0  0  0  0  0  0  0
   -6.1014    5.3622  -15.7207 C   0  0  0  0  0  0  0  0  0  0  0  0
   -4.8508    5.9860  -15.5381 C   0  0  0  0  0  0  0  0  0  0  0  0
   -4.1589    6.1074  -16.6762 N   0  0  0  0  0  0  0  0  0  0  0  0
   -4.9701    5.5368  -17.6006 N   0  0  0  0  0  0  0  0  0  0  0  0
   -4.5968    5.5137  -19.0105 C   0  0  0  0  0  0  0  0  0  0  0  0
   -5.1343    6.7504  -19.7447 C   0  0  0  0  0  0  0  0  0  0  0  0
   -4.7769    6.7167  -21.2300 C   0  0  0  0  0  0  0  0  0  0  0  0
   -3.2769    6.5469  -21.4522 C   0  0  0  0  0  0  0  0  0  0  0  0
   -2.7339    5.3251  -20.7168 C   0  0  0  0  0  0  0  0  0  0  0  0
   -3.0783    5.3754  -19.2302 C   0  0  0  0  0  0  0  0  0  0  0  0
   -8.4678    3.1312  -10.6301 C   0  0  0  0  0  0  0  0  0  0  0  0
   -8.6427    3.1295   -9.2530 C   0  0  0  0  0  0  0  0  0  0  0  0
   -9.1400    2.0344   -8.3623 C   0  0  0  0  0  0  0  0  0  0  0  0
  1  2  1  0
  2  3  1  0
  3  4  1  0
  4  5  2  0
  5  6  1  0
  6  7  2  0
  7  8  1  0
  8  9  1  0
  9 10  2  0
  9 11  1  0
 11 12  2  0
 12 13  1  0
 13 14  1  0
 14 15  1  0
 15 16  1  0
 13 17  2  0
 17 18  1  0
 18 19  2  0
 19 20  1  0
 20 21  2  0
 21 22  1  0
 22 23  1  0
 23 24  1  0
 24 25  1  0
 25 26  1  0
 26 27  1  0
 27 28  1  0
  7 29  1  0
 29 30  2  0
 30 31  1  0
 31  2  1  0
 30  4  1  0
 19 11  1  0
 28 23  1  0
 16 14  1  0
 22 18  1  0
M  END
>  <name>  (612) 
P125402

>  <alias>  (612) 
None

>  <smina_score_min>  (612) 
-9.65

>  <exports>  (612) 
['/opt/xchem-fragalysis-2/maxwin/BulkDock/OUTPUTS/openbind_xx01zvns2b_c2_elabs_1LOUTNY.sdf', '/opt/xchem-fragalysis-2/maxwin/BulkDock/OUTPUTS/openbind_xx01zvns2b_c2_elabs_1LSYIIV.sdf']

>  <tags>  (612) 
syndirella_placed,openbind_xx01zvns2b_c2_elabs,openbind_xx01zvns2b_c2_elabs_scored_6.2plus,syndirella_product,openbind_xx01zvns2b_c2_elabs_scored,openbind_xx01zvns2b_c2_elabs_scored_top80percent,BulkDock Fragalysis export

>  <subsites>  (612) 
1 - Z4590/B/203/1

>  <smiles>  (612) 
CN1Cc2ccc(NC(=O)c3cc(C4CC4)nc4c3cnn4C3CCCCC3)cc2C1

>  <HIPPO Pose ID>  (612) 
125402

>  <energy_score>  (612) 
-60.917088

>  <inchikey>  (612) 
YNYZOAIQZYTLSK-UHFFFAOYSA-N

>  <gnina_score_min>  (612) 
6.503

>  <gnina_score>  (612) 
6.464

>  <ref_mols>  (612) 
Z3559a

>  <HIPPO Compound ID>  (612) 
178634

>  <distance_score>  (612) 
0.375997

>  <rmsd(smina/fragmenstein)>  (612) 
0.312

>  <ref_pdb>  (612) 
Z3559a

>  <inspiration_score>  (612) 
None

$$$$
P125403
     RDKit          3D

 31 36  0  0  0  0  0  0  0  0999 V2000
   -8.1838    4.4450   -6.1870 O   0  0  0  0  0  0  0  0  0  0  0  0
   -8.4795    3.7489   -7.1403 C   0  0  0  0  0  0  0  0  0  0  0  0
   -9.0491    2.4931   -7.1186 N   0  0  0  0  0  0  0  0  0  0  0  0
   -9.0464    1.8714   -8.4269 C   0  0  0  0  0  0  0  0  0  0  0  0
   -8.6037    2.9803   -9.3218 C   0  0  0  0  0  0  0  0  0  0  0  0
   -8.4648    3.0116  -10.7022 C   0  0  0  0  0  0  0  0  0  0  0  0
   -7.9507    4.1734  -11.2939 C   0  0  0  0  0  0  0  0  0  0  0  0
   -7.7735    4.2045  -12.6779 N   0  0  0  0  0  0  0  0  0  0  0  0
   -7.1313    5.2831  -13.5860 C   0  0  0  0  0  0  0  0  0  0  0  0
   -6.7207    6.3461  -13.3256 O   0  0  0  0  0  0  0  0  0  0  0  0
   -7.1410    4.8981  -15.0200 C   0  0  0  0  0  0  0  0  0  0  0  0
   -8.2808    4.3583  -15.6333 C   0  0  0  0  0  0  0  0  0  0  0  0
   -8.3339    4.2180  -17.0246 C   0  0  0  0  0  0  0  0  0  0  0  0
   -9.6039    3.7459  -17.6922 C   0  0  0  0  0  0  0  0  0  0  0  0
   -9.8183    3.9394  -19.1731 C   0  0  0  0  0  0  0  0  0  0  0  0
   -9.5535    2.5670  -18.6317 C   0  0  0  0  0  0  0  0  0  0  0  0
   -7.3113    4.5820  -17.8268 N   0  0  0  0  0  0  0  0  0  0  0  0
   -6.2423    5.0960  -17.2084 C   0  0  0  0  0  0  0  0  0  0  0  0
   -6.0749    5.2774  -15.8496 C   0  0  0  0  0  0  0  0  0  0  0  0
   -4.8103    5.8949  -15.7418 C   0  0  0  0  0  0  0  0  0  0  0  0
   -4.2449    6.1502  -16.9302 N   0  0  0  0  0  0  0  0  0  0  0  0
   -5.1565    5.6686  -17.8215 N   0  0  0  0  0  0  0  0  0  0  0  0
   -5.1671    6.1443  -19.2008 C   0  0  0  0  0  0  0  0  0  0  0  0
   -4.2371    5.4375  -20.1305 C   0  0  0  0  0  0  0  0  0  0  0  0
   -2.8097    5.4032  -20.0070 C   0  0  0  0  0  0  0  0  0  0  0  0
   -2.2021    4.7816  -21.0744 C   0  0  0  0  0  0  0  0  0  0  0  0
   -3.3335    4.2332  -22.2305 S   0  0  0  0  0  0  0  0  0  0  0  0
   -4.6431    4.7989  -21.2910 C   0  0  0  0  0  0  0  0  0  0  0  0
   -7.6095    5.2842  -10.4975 C   0  0  0  0  0  0  0  0  0  0  0  0
   -7.7656    5.2505   -9.1077 C   0  0  0  0  0  0  0  0  0  0  0  0
   -8.2573    4.0877   -8.5522 C   0  0  0  0  0  0  0  0  0  0  0  0
  1  2  2  0
  2  3  1  0
  3  4  1  0
  4  5  1  0
  5  6  2  0
  6  7  1  0
  7  8  1  0
  8  9  1  0
  9 10  2  0
  9 11  1  0
 11 12  2  0
 12 13  1  0
 13 14  1  0
 14 15  1  0
 15 16  1  0
 13 17  2  0
 17 18  1  0
 18 19  2  0
 19 20  1  0
 20 21  2  0
 21 22  1  0
 22 23  1  0
 23 24  1  0
 24 25  1  0
 25 26  2  0
 26 27  1  0
 27 28  1  0
  7 29  2  0
 29 30  1  0
 30 31  2  0
 31  2  1  0
 31  5  1  0
 19 11  1  0
 28 24  2  0
 16 14  1  0
 22 18  1  0
M  END
>  <name>  (613) 
P125403

>  <alias>  (613) 
None

>  <smina_score_min>  (613) 
-9.546

>  <exports>  (613) 
['/opt/xchem-fragalysis-2/maxwin/BulkDock/OUTPUTS/openbind_xx01zvns2b_c2_elabs_1LOUTNY.sdf', '/opt/xchem-fragalysis-2/maxwin/BulkDock/OUTPUTS/openbind_xx01zvns2b_c2_elabs_1LSYIIV.sdf']

>  <tags>  (613) 
syndirella_placed,openbind_xx01zvns2b_c2_elabs,openbind_xx01zvns2b_c2_elabs_scored_6.2plus,syndirella_product,openbind_xx01zvns2b_c2_elabs_scored,openbind_xx01zvns2b_c2_elabs_scored_top80percent,BulkDock Fragalysis export

>  <subsites>  (613) 
1 - Z4590/B/203/1

>  <smiles>  (613) 
O=C1NCc2cc(NC(=O)c3cc(C4CC4)nc4c3cnn4Cc3ccsc3)ccc21

>  <HIPPO Pose ID>  (613) 
125403

>  <energy_score>  (613) 
-55.594179

>  <inchikey>  (613) 
PXWCWIBCERFNCF-UHFFFAOYSA-N

>  <gnina_score_min>  (613) 
6.529

>  <gnina_score>  (613) 
6.464

>  <ref_mols>  (613) 
Z3559a

>  <HIPPO Compound ID>  (613) 
178631

>  <distance_score>  (613) 
0.353607

>  <rmsd(smina/fragmenstein)>  (613) 
0.195

>  <ref_pdb>  (613) 
Z3559a

>  <inspiration_score>  (613) 
None

$$$$
P125404
     RDKit          3D

 31 36  0  0  0  0  0  0  0  0999 V2000
  -10.1207    2.2458   -6.1593 C   0  0  0  0  0  0  0  0  0  0  0  0
   -8.9958    2.5672   -7.0139 N   0  0  0  0  0  0  0  0  0  0  0  0
   -8.6874    4.0004   -7.0896 C   0  0  0  0  0  0  0  0  0  0  0  0
   -8.3706    4.2675   -8.5249 C   0  0  0  0  0  0  0  0  0  0  0  0
   -7.9187    5.4322   -9.1152 C   0  0  0  0  0  0  0  0  0  0  0  0
   -7.7290    5.4410  -10.5000 C   0  0  0  0  0  0  0  0  0  0  0  0
   -7.9966    4.2996  -11.2745 C   0  0  0  0  0  0  0  0  0  0  0  0
   -7.8253    4.3265  -12.6590 N   0  0  0  0  0  0  0  0  0  0  0  0
   -7.1858    5.3999  -13.5719 C   0  0  0  0  0  0  0  0  0  0  0  0
   -6.7723    6.4624  -13.3165 O   0  0  0  0  0  0  0  0  0  0  0  0
   -7.1718    4.9887  -14.9949 C   0  0  0  0  0  0  0  0  0  0  0  0
   -8.2940    4.4240  -15.6159 C   0  0  0  0  0  0  0  0  0  0  0  0
   -8.3076    4.2267  -17.0022 C   0  0  0  0  0  0  0  0  0  0  0  0
   -9.5710    3.7476  -17.6818 C   0  0  0  0  0  0  0  0  0  0  0  0
   -9.5145    2.5733  -18.6266 C   0  0  0  0  0  0  0  0  0  0  0  0
   -9.7749    3.9483  -19.1633 C   0  0  0  0  0  0  0  0  0  0  0  0
   -7.2498    4.5316  -17.7895 N   0  0  0  0  0  0  0  0  0  0  0  0
   -6.2031    5.0789  -17.1570 C   0  0  0  0  0  0  0  0  0  0  0  0
   -6.0838    5.3341  -15.8056 C   0  0  0  0  0  0  0  0  0  0  0  0
   -4.8181    5.9447  -15.6818 C   0  0  0  0  0  0  0  0  0  0  0  0
   -4.1875    6.0847  -16.8547 N   0  0  0  0  0  0  0  0  0  0  0  0
   -5.0607    5.5545  -17.7483 N   0  0  0  0  0  0  0  0  0  0  0  0
   -4.8630    5.5878  -19.1960 C   0  0  0  0  0  0  0  0  0  0  0  0
   -3.5579    6.1798  -19.6461 C   0  0  0  0  0  0  0  0  0  0  0  0
   -3.4185    7.4983  -20.2006 C   0  0  0  0  0  0  0  0  0  0  0  0
   -2.1212    7.7945  -20.5536 C   0  0  0  0  0  0  0  0  0  0  0  0
   -1.0595    6.4971  -20.2330 S   0  0  0  0  0  0  0  0  0  0  0  0
   -2.3324    5.5361  -19.6141 C   0  0  0  0  0  0  0  0  0  0  0  0
   -8.4558    3.1289  -10.6628 C   0  0  0  0  0  0  0  0  0  0  0  0
   -8.6312    3.1313   -9.2853 C   0  0  0  0  0  0  0  0  0  0  0  0
   -9.1220    2.0372   -8.3891 C   0  0  0  0  0  0  0  0  0  0  0  0
  1  2  1  0
  2  3  1  0
  3  4  1  0
  4  5  2  0
  5  6  1  0
  6  7  2  0
  7  8  1  0
  8  9  1  0
  9 10  2  0
  9 11  1  0
 11 12  2  0
 12 13  1  0
 13 14  1  0
 14 15  1  0
 15 16  1  0
 13 17  2  0
 17 18  1  0
 18 19  2  0
 19 20  1  0
 20 21  2  0
 21 22  1  0
 22 23  1  0
 23 24  1  0
 24 25  1  0
 25 26  2  0
 26 27  1  0
 27 28  1  0
  7 29  1  0
 29 30  2  0
 30 31  1  0
 31  2  1  0
 30  4  1  0
 19 11  1  0
 28 24  2  0
 16 14  1  0
 22 18  1  0
M  END
>  <name>  (614) 
P125404

>  <alias>  (614) 
None

>  <smina_score_min>  (614) 
-8.773

>  <exports>  (614) 
['/opt/xchem-fragalysis-2/maxwin/BulkDock/OUTPUTS/openbind_xx01zvns2b_c2_elabs_1LOUTNY.sdf', '/opt/xchem-fragalysis-2/maxwin/BulkDock/OUTPUTS/openbind_xx01zvns2b_c2_elabs_1LSYIIV.sdf']

>  <tags>  (614) 
syndirella_placed,openbind_xx01zvns2b_c2_elabs,openbind_xx01zvns2b_c2_elabs_scored_6.2plus,syndirella_product,openbind_xx01zvns2b_c2_elabs_scored,openbind_xx01zvns2b_c2_elabs_scored_top80percent,BulkDock Fragalysis export

>  <subsites>  (614) 
1 - Z4590/B/203/1

>  <smiles>  (614) 
CN1Cc2ccc(NC(=O)c3cc(C4CC4)nc4c3cnn4Cc3ccsc3)cc2C1

>  <HIPPO Pose ID>  (614) 
125404

>  <energy_score>  (614) 
-66.527266

>  <inchikey>  (614) 
KFLRIIXFJRZAOL-UHFFFAOYSA-N

>  <gnina_score_min>  (614) 
6.445

>  <gnina_score>  (614) 
6.425

>  <ref_mols>  (614) 
Z3559a

>  <HIPPO Compound ID>  (614) 
178608

>  <distance_score>  (614) 
0.340367

>  <rmsd(smina/fragmenstein)>  (614) 
0.404

>  <ref_pdb>  (614) 
Z3559a

>  <inspiration_score>  (614) 
None

$$$$
P125405
     RDKit          3D

 31 35  0  0  0  0  0  0  0  0999 V2000
  -10.3343    1.4991   -6.0508 C   0  0  0  0  0  0  0  0  0  0  0  0
   -9.8308    2.9162   -6.1616 C   0  0  0  0  0  0  0  0  0  0  0  0
   -8.8039    3.0754   -7.1745 N   0  0  0  0  0  0  0  0  0  0  0  0
   -8.4150    4.4713   -7.3722 C   0  0  0  0  0  0  0  0  0  0  0  0
   -8.2156    4.6195   -8.8400 C   0  0  0  0  0  0  0  0  0  0  0  0
   -7.8237    5.7432   -9.5322 C   0  0  0  0  0  0  0  0  0  0  0  0
   -7.7285    5.6520  -10.9186 C   0  0  0  0  0  0  0  0  0  0  0  0
   -7.9956    4.4474  -11.5985 C   0  0  0  0  0  0  0  0  0  0  0  0
   -7.8213    4.4038  -12.9850 N   0  0  0  0  0  0  0  0  0  0  0  0
   -7.4162    5.5128  -13.9801 C   0  0  0  0  0  0  0  0  0  0  0  0
   -7.2392    6.6549  -13.8102 O   0  0  0  0  0  0  0  0  0  0  0  0
   -7.1247    5.0142  -15.3397 C   0  0  0  0  0  0  0  0  0  0  0  0
   -8.1125    4.4522  -16.1598 C   0  0  0  0  0  0  0  0  0  0  0  0
   -7.8708    4.3265  -17.5381 C   0  0  0  0  0  0  0  0  0  0  0  0
   -8.8695    3.8135  -18.5460 C   0  0  0  0  0  0  0  0  0  0  0  0
  -10.3413    3.6937  -18.3096 C   0  0  0  0  0  0  0  0  0  0  0  0
   -9.4792    2.4574  -18.3591 C   0  0  0  0  0  0  0  0  0  0  0  0
   -6.7179    4.7346  -18.1096 N   0  0  0  0  0  0  0  0  0  0  0  0
   -5.7997    5.2514  -17.2901 C   0  0  0  0  0  0  0  0  0  0  0  0
   -5.9004    5.3851  -15.9208 C   0  0  0  0  0  0  0  0  0  0  0  0
   -4.6614    5.9561  -15.5319 C   0  0  0  0  0  0  0  0  0  0  0  0
   -4.1844    6.2891  -14.1660 C   0  0  0  0  0  0  0  0  0  0  0  0
   -3.8756    6.2164  -16.5863 N   0  0  0  0  0  0  0  0  0  0  0  0
   -4.6251    5.8605  -17.6591 N   0  0  0  0  0  0  0  0  0  0  0  0
   -4.2637    6.3350  -19.0081 C   0  0  0  0  0  0  0  0  0  0  0  0
   -5.3536    7.2881  -19.5393 C   0  0  0  0  0  0  0  0  0  0  0  0
   -2.9349    7.1345  -18.9904 C   0  0  0  0  0  0  0  0  0  0  0  0
   -4.0740    5.1750  -19.9912 C   0  0  0  0  0  0  0  0  0  0  0  0
   -8.4015    3.3175  -10.8817 C   0  0  0  0  0  0  0  0  0  0  0  0
   -8.5249    3.4314   -9.4994 C   0  0  0  0  0  0  0  0  0  0  0  0
   -9.0401    2.4454   -8.4945 C   0  0  0  0  0  0  0  0  0  0  0  0
  1  2  1  0
  2  3  1  0
  3  4  1  0
  4  5  1  0
  5  6  2  0
  6  7  1  0
  7  8  2  0
  8  9  1  0
  9 10  1  0
 10 11  2  0
 10 12  1  0
 12 13  2  0
 13 14  1  0
 14 15  1  0
 15 16  1  0
 16 17  1  0
 14 18  2  0
 18 19  1  0
 19 20  2  0
 20 21  1  0
 21 22  1  0
 21 23  2  0
 23 24  1  0
 24 25  1  0
 25 26  1  0
 25 27  1  0
 25 28  1  0
  8 29  1  0
 29 30  2  0
 30 31  1  0
 31  3  1  0
 30  5  1  0
 20 12  1  0
 17 15  1  0
 24 19  1  0
M  END
>  <name>  (615) 
P125405

>  <alias>  (615) 
None

>  <smina_score_min>  (615) 
-9.185

>  <exports>  (615) 
['/opt/xchem-fragalysis-2/maxwin/BulkDock/OUTPUTS/openbind_xx01zvns2b_c2_elabs_1LOUTNY.sdf', '/opt/xchem-fragalysis-2/maxwin/BulkDock/OUTPUTS/openbind_xx01zvns2b_c2_elabs_1LSYIIV.sdf']

>  <tags>  (615) 
syndirella_placed,openbind_xx01zvns2b_c2_elabs,openbind_xx01zvns2b_c2_elabs_scored_6.2plus,syndirella_product,openbind_xx01zvns2b_c2_elabs_scored,openbind_xx01zvns2b_c2_elabs_scored_top80percent,BulkDock Fragalysis export

>  <subsites>  (615) 
1 - Z4590/B/203/1

>  <smiles>  (615) 
CCN1Cc2ccc(NC(=O)c3cc(C4CC4)nc4c3c(C)nn4C(C)(C)C)cc2C1

>  <HIPPO Pose ID>  (615) 
125405

>  <energy_score>  (615) 
-52.725253

>  <inchikey>  (615) 
QDFROHTWEDNUOY-UHFFFAOYSA-N

>  <gnina_score_min>  (615) 
6.546

>  <gnina_score>  (615) 
6.514

>  <ref_mols>  (615) 
Z3559a

>  <HIPPO Compound ID>  (615) 
178672

>  <distance_score>  (615) 
0.769135

>  <rmsd(smina/fragmenstein)>  (615) 
0.798

>  <ref_pdb>  (615) 
Z3559a

>  <inspiration_score>  (615) 
None

$$$$
P125406
     RDKit          3D

 31 35  0  0  0  0  0  0  0  0999 V2000
   -4.0860    6.2171  -14.1470 C   0  0  0  0  0  0  0  0  0  0  0  0
   -4.7433    5.8529  -15.4272 C   0  0  0  0  0  0  0  0  0  0  0  0
   -4.0789    6.0285  -16.5750 N   0  0  0  0  0  0  0  0  0  0  0  0
   -4.9442    5.6136  -17.5372 N   0  0  0  0  0  0  0  0  0  0  0  0
   -4.5926    5.8836  -18.9434 C   0  0  0  0  0  0  0  0  0  0  0  0
   -4.7795    7.3929  -19.2102 C   0  0  0  0  0  0  0  0  0  0  0  0
   -5.4602    5.1224  -19.9530 C   0  0  0  0  0  0  0  0  0  0  0  0
   -3.1143    5.5195  -19.2059 C   0  0  0  0  0  0  0  0  0  0  0  0
   -6.1210    5.1297  -17.0105 C   0  0  0  0  0  0  0  0  0  0  0  0
   -7.1717    4.6255  -17.6786 N   0  0  0  0  0  0  0  0  0  0  0  0
   -8.2518    4.2859  -16.9387 C   0  0  0  0  0  0  0  0  0  0  0  0
   -9.4939    3.7967  -17.6575 C   0  0  0  0  0  0  0  0  0  0  0  0
   -9.4042    2.6348  -18.6153 C   0  0  0  0  0  0  0  0  0  0  0  0
   -9.6737    4.0122  -19.1390 C   0  0  0  0  0  0  0  0  0  0  0  0
   -8.2858    4.4566  -15.5536 C   0  0  0  0  0  0  0  0  0  0  0  0
   -7.1796    4.9947  -14.8898 C   0  0  0  0  0  0  0  0  0  0  0  0
   -7.2612    5.3970  -13.4705 C   0  0  0  0  0  0  0  0  0  0  0  0
   -6.9442    6.4894  -13.2065 O   0  0  0  0  0  0  0  0  0  0  0  0
   -7.8043    4.2659  -12.5685 N   0  0  0  0  0  0  0  0  0  0  0  0
   -7.9753    4.2137  -11.1874 C   0  0  0  0  0  0  0  0  0  0  0  0
   -7.5861    5.3061  -10.3852 C   0  0  0  0  0  0  0  0  0  0  0  0
   -7.7679    5.2958   -8.9986 C   0  0  0  0  0  0  0  0  0  0  0  0
   -8.3518    4.1814   -8.4342 C   0  0  0  0  0  0  0  0  0  0  0  0
   -8.7294    3.1037   -9.2350 C   0  0  0  0  0  0  0  0  0  0  0  0
   -8.5507    3.0844  -10.6075 C   0  0  0  0  0  0  0  0  0  0  0  0
   -9.4231    2.1344   -8.3802 C   0  0  0  0  0  0  0  0  0  0  0  0
  -10.0003    1.1473   -8.7860 O   0  0  0  0  0  0  0  0  0  0  0  0
   -9.3785    2.6358   -7.0900 N   0  0  0  0  0  0  0  0  0  0  0  0
  -10.2091    2.1366   -6.0246 C   0  0  0  0  0  0  0  0  0  0  0  0
   -8.7365    3.9271   -7.0176 C   0  0  0  0  0  0  0  0  0  0  0  0
   -6.0410    5.3229  -15.6413 C   0  0  0  0  0  0  0  0  0  0  0  0
  1  2  1  0
  2  3  2  0
  3  4  1  0
  4  5  1  0
  5  6  1  0
  5  7  1  0
  5  8  1  0
  4  9  1  0
  9 10  2  0
 10 11  1  0
 11 12  1  0
 12 13  1  0
 13 14  1  0
 11 15  2  0
 15 16  1  0
 16 17  1  0
 17 18  2  0
 17 19  1  0
 19 20  1  0
 20 21  2  0
 21 22  1  0
 22 23  2  0
 23 24  1  0
 24 25  2  0
 24 26  1  0
 26 27  2  0
 26 28  1  0
 28 29  1  0
 28 30  1  0
 16 31  2  0
 31  2  1  0
 31  9  1  0
 14 12  1  0
 25 20  1  0
 30 23  1  0
M  END
>  <name>  (616) 
P125406

>  <alias>  (616) 
None

>  <smina_score_min>  (616) 
-9.567

>  <exports>  (616) 
['/opt/xchem-fragalysis-2/maxwin/BulkDock/OUTPUTS/openbind_xx01zvns2b_c2_elabs_1LOUTNY.sdf', '/opt/xchem-fragalysis-2/maxwin/BulkDock/OUTPUTS/openbind_xx01zvns2b_c2_elabs_1LSYIIV.sdf']

>  <tags>  (616) 
syndirella_placed,openbind_xx01zvns2b_c2_elabs,openbind_xx01zvns2b_c2_elabs_scored_6.2plus,syndirella_product,openbind_xx01zvns2b_c2_elabs_scored,openbind_xx01zvns2b_c2_elabs_scored_top80percent,BulkDock Fragalysis export

>  <subsites>  (616) 
1 - Z4590/B/203/1

>  <smiles>  (616) 
Cc1nn(C(C)(C)C)c2nc(C3CC3)cc(C(=O)Nc3ccc4c(c3)C(=O)N(C)C4)c12

>  <HIPPO Pose ID>  (616) 
125406

>  <energy_score>  (616) 
-46.579074

>  <inchikey>  (616) 
HEDBLXQCKRJJHJ-UHFFFAOYSA-N

>  <gnina_score_min>  (616) 
6.326

>  <gnina_score>  (616) 
6.374

>  <ref_mols>  (616) 
Z3559a

>  <HIPPO Compound ID>  (616) 
178673

>  <distance_score>  (616) 
0.412593

>  <rmsd(smina/fragmenstein)>  (616) 
0.833

>  <ref_pdb>  (616) 
Z3559a

>  <inspiration_score>  (616) 
None

$$$$
P125407
     RDKit          3D

 31 35  0  0  0  0  0  0  0  0999 V2000
   -4.0759    6.1572  -14.0969 C   0  0  0  0  0  0  0  0  0  0  0  0
   -4.7502    5.8155  -15.3754 C   0  0  0  0  0  0  0  0  0  0  0  0
   -4.0886    5.9918  -16.5249 N   0  0  0  0  0  0  0  0  0  0  0  0
   -4.9622    5.5993  -17.4856 N   0  0  0  0  0  0  0  0  0  0  0  0
   -4.6137    5.8844  -18.8897 C   0  0  0  0  0  0  0  0  0  0  0  0
   -4.8011    7.3962  -19.1401 C   0  0  0  0  0  0  0  0  0  0  0  0
   -3.1362    5.5233  -19.1614 C   0  0  0  0  0  0  0  0  0  0  0  0
   -5.4847    5.1326  -19.9043 C   0  0  0  0  0  0  0  0  0  0  0  0
   -6.1402    5.1181  -16.9587 C   0  0  0  0  0  0  0  0  0  0  0  0
   -7.1931    4.6213  -17.6295 N   0  0  0  0  0  0  0  0  0  0  0  0
   -8.2737    4.2854  -16.8865 C   0  0  0  0  0  0  0  0  0  0  0  0
   -9.5139    3.8000  -17.6131 C   0  0  0  0  0  0  0  0  0  0  0  0
   -9.6968    4.0406  -19.0917 C   0  0  0  0  0  0  0  0  0  0  0  0
   -9.4138    2.6567  -18.5938 C   0  0  0  0  0  0  0  0  0  0  0  0
   -8.3069    4.4509  -15.4985 C   0  0  0  0  0  0  0  0  0  0  0  0
   -7.1984    4.9810  -14.8317 C   0  0  0  0  0  0  0  0  0  0  0  0
   -7.2675    5.3776  -13.4063 C   0  0  0  0  0  0  0  0  0  0  0  0
   -6.8582    6.4377  -13.1372 O   0  0  0  0  0  0  0  0  0  0  0  0
   -7.8068    4.2489  -12.4940 N   0  0  0  0  0  0  0  0  0  0  0  0
   -8.0362    4.2272  -11.1086 C   0  0  0  0  0  0  0  0  0  0  0  0
   -8.6135    3.0787  -10.5513 C   0  0  0  0  0  0  0  0  0  0  0  0
   -8.7964    3.0483   -9.1750 C   0  0  0  0  0  0  0  0  0  0  0  0
   -8.4058    4.0888   -8.3335 C   0  0  0  0  0  0  0  0  0  0  0  0
   -7.8526    5.2319   -8.8666 C   0  0  0  0  0  0  0  0  0  0  0  0
   -7.6800    5.2957  -10.2527 C   0  0  0  0  0  0  0  0  0  0  0  0
   -7.1253    6.4191  -10.7217 F   0  0  0  0  0  0  0  0  0  0  0  0
   -8.6875    3.7386   -6.9128 C   0  0  0  0  0  0  0  0  0  0  0  0
   -9.3331    2.4624   -7.0269 N   0  0  0  0  0  0  0  0  0  0  0  0
   -9.4176    2.0210   -8.3298 C   0  0  0  0  0  0  0  0  0  0  0  0
   -9.9530    1.0040   -8.7119 O   0  0  0  0  0  0  0  0  0  0  0  0
   -6.0572    5.3030  -15.5876 C   0  0  0  0  0  0  0  0  0  0  0  0
  1  2  1  0
  2  3  2  0
  3  4  1  0
  4  5  1  0
  5  6  1  0
  5  7  1  0
  5  8  1  0
  4  9  1  0
  9 10  2  0
 10 11  1  0
 11 12  1  0
 12 13  1  0
 13 14  1  0
 11 15  2  0
 15 16  1  0
 16 17  1  0
 17 18  2  0
 17 19  1  0
 19 20  1  0
 20 21  2  0
 21 22  1  0
 22 23  2  0
 23 24  1  0
 24 25  2  0
 25 26  1  0
 23 27  1  0
 27 28  1  0
 28 29  1  0
 29 30  2  0
 16 31  2  0
 31  2  1  0
 31  9  1  0
 14 12  1  0
 25 20  1  0
 29 22  1  0
M  END
>  <name>  (617) 
P125407

>  <alias>  (617) 
None

>  <smina_score_min>  (617) 
-9.545

>  <exports>  (617) 
['/opt/xchem-fragalysis-2/maxwin/BulkDock/OUTPUTS/openbind_xx01zvns2b_c2_elabs_1LOUTNY.sdf', '/opt/xchem-fragalysis-2/maxwin/BulkDock/OUTPUTS/openbind_xx01zvns2b_c2_elabs_1LSYIIV.sdf']

>  <tags>  (617) 
syndirella_placed,openbind_xx01zvns2b_c2_elabs,openbind_xx01zvns2b_c2_elabs_scored_6.2plus,syndirella_product,openbind_xx01zvns2b_c2_elabs_scored,openbind_xx01zvns2b_c2_elabs_scored_top80percent,BulkDock Fragalysis export

>  <subsites>  (617) 
1 - Z4590/B/203/1

>  <smiles>  (617) 
Cc1nn(C(C)(C)C)c2nc(C3CC3)cc(C(=O)Nc3cc4c(cc3F)CNC4=O)c12

>  <HIPPO Pose ID>  (617) 
125407

>  <energy_score>  (617) 
-42.641848

>  <inchikey>  (617) 
LZZLMURBKZFANH-UHFFFAOYSA-N

>  <gnina_score_min>  (617) 
6.33

>  <gnina_score>  (617) 
6.48

>  <ref_mols>  (617) 
Z3559a

>  <HIPPO Compound ID>  (617) 
178677

>  <distance_score>  (617) 
0.394817

>  <rmsd(smina/fragmenstein)>  (617) 
0.808

>  <ref_pdb>  (617) 
Z3559a

>  <inspiration_score>  (617) 
None

$$$$
P125409
     RDKit          3D

 31 35  0  0  0  0  0  0  0  0999 V2000
   -4.1242    6.1080  -14.0260 C   0  0  0  0  0  0  0  0  0  0  0  0
   -4.7942    5.7862  -15.3116 C   0  0  0  0  0  0  0  0  0  0  0  0
   -4.1246    5.9763  -16.4546 N   0  0  0  0  0  0  0  0  0  0  0  0
   -4.9911    5.5939  -17.4260 N   0  0  0  0  0  0  0  0  0  0  0  0
   -4.6325    5.8881  -18.8263 C   0  0  0  0  0  0  0  0  0  0  0  0
   -4.8128    7.4024  -19.0663 C   0  0  0  0  0  0  0  0  0  0  0  0
   -5.4982    5.1465  -19.8532 C   0  0  0  0  0  0  0  0  0  0  0  0
   -3.1541    5.5245  -19.0895 C   0  0  0  0  0  0  0  0  0  0  0  0
   -6.1729    5.1099  -16.9112 C   0  0  0  0  0  0  0  0  0  0  0  0
   -7.2187    4.6212  -17.5962 N   0  0  0  0  0  0  0  0  0  0  0  0
   -8.3077    4.2811  -16.8710 C   0  0  0  0  0  0  0  0  0  0  0  0
   -9.5388    3.8057  -17.6188 C   0  0  0  0  0  0  0  0  0  0  0  0
   -9.4342    2.6487  -18.5828 C   0  0  0  0  0  0  0  0  0  0  0  0
   -9.6850    4.0300  -19.1041 C   0  0  0  0  0  0  0  0  0  0  0  0
   -8.3549    4.4342  -15.4820 C   0  0  0  0  0  0  0  0  0  0  0  0
   -7.2521    4.9519  -14.7940 C   0  0  0  0  0  0  0  0  0  0  0  0
   -7.3354    5.3272  -13.3603 C   0  0  0  0  0  0  0  0  0  0  0  0
   -6.8998    6.3711  -13.0674 O   0  0  0  0  0  0  0  0  0  0  0  0
   -7.9737    4.2235  -12.4808 N   0  0  0  0  0  0  0  0  0  0  0  0
   -8.1169    4.1384  -11.0928 C   0  0  0  0  0  0  0  0  0  0  0  0
   -7.6537    5.1949  -10.2758 C   0  0  0  0  0  0  0  0  0  0  0  0
   -7.7093    5.1179   -8.8800 C   0  0  0  0  0  0  0  0  0  0  0  0
   -8.2563    3.9771   -8.3356 C   0  0  0  0  0  0  0  0  0  0  0  0
   -8.7582    2.9590   -9.1271 C   0  0  0  0  0  0  0  0  0  0  0  0
   -8.6906    3.0011  -10.5124 C   0  0  0  0  0  0  0  0  0  0  0  0
   -9.3253    1.9608   -8.2174 C   0  0  0  0  0  0  0  0  0  0  0  0
   -9.9657    0.9877   -8.5544 O   0  0  0  0  0  0  0  0  0  0  0  0
   -9.0632    2.3871   -6.9495 N   0  0  0  0  0  0  0  0  0  0  0  0
   -8.4161    3.5819   -6.9350 C   0  0  0  0  0  0  0  0  0  0  0  0
   -8.0119    4.2180   -5.9787 O   0  0  0  0  0  0  0  0  0  0  0  0
   -6.1023    5.2805  -15.5372 C   0  0  0  0  0  0  0  0  0  0  0  0
  1  2  1  0
  2  3  2  0
  3  4  1  0
  4  5  1  0
  5  6  1  0
  5  7  1  0
  5  8  1  0
  4  9  1  0
  9 10  2  0
 10 11  1  0
 11 12  1  0
 12 13  1  0
 13 14  1  0
 11 15  2  0
 15 16  1  0
 16 17  1  0
 17 18  2  0
 17 19  1  0
 19 20  1  0
 20 21  2  0
 21 22  1  0
 22 23  2  0
 23 24  1  0
 24 25  2  0
 24 26  1  0
 26 27  2  0
 26 28  1  0
 28 29  1  0
 29 30  2  0
 16 31  2  0
 31  2  1  0
 31  9  1  0
 14 12  1  0
 25 20  1  0
 29 23  1  0
M  END
>  <name>  (618) 
P125409

>  <alias>  (618) 
None

>  <smina_score_min>  (618) 
-9.871

>  <exports>  (618) 
['/opt/xchem-fragalysis-2/maxwin/BulkDock/OUTPUTS/openbind_xx01zvns2b_c2_elabs_1LOUTNY.sdf', '/opt/xchem-fragalysis-2/maxwin/BulkDock/OUTPUTS/openbind_xx01zvns2b_c2_elabs_1LSYIIV.sdf']

>  <tags>  (618) 
syndirella_placed,openbind_xx01zvns2b_c2_elabs,openbind_xx01zvns2b_c2_elabs_scored_6.2plus,syndirella_product,openbind_xx01zvns2b_c2_elabs_scored,openbind_xx01zvns2b_c2_elabs_scored_top80percent,BulkDock Fragalysis export

>  <subsites>  (618) 
1 - Z4590/B/203/1

>  <smiles>  (618) 
Cc1nn(C(C)(C)C)c2nc(C3CC3)cc(C(=O)Nc3ccc4c(c3)C(=O)NC4=O)c12

>  <HIPPO Pose ID>  (618) 
125409

>  <energy_score>  (618) 
-50.891406

>  <inchikey>  (618) 
HEEGWPYUKDCKJA-UHFFFAOYSA-N

>  <gnina_score_min>  (618) 
6.308

>  <gnina_score>  (618) 
6.378

>  <ref_mols>  (618) 
Z3559a

>  <HIPPO Compound ID>  (618) 
178679

>  <distance_score>  (618) 
0.387392

>  <rmsd(smina/fragmenstein)>  (618) 
0.859

>  <ref_pdb>  (618) 
Z3559a

>  <inspiration_score>  (618) 
None

$$$$
P125410
     RDKit          3D

 31 35  0  0  0  0  0  0  0  0999 V2000
  -10.9952    3.1444   -5.5441 C   0  0  0  0  0  0  0  0  0  0  0  0
   -9.6741    2.4503   -5.8017 C   0  0  0  0  0  0  0  0  0  0  0  0
   -8.8885    2.8949   -6.9256 N   0  0  0  0  0  0  0  0  0  0  0  0
   -8.5961    4.3139   -7.0442 C   0  0  0  0  0  0  0  0  0  0  0  0
   -8.3118    4.5034   -8.4956 C   0  0  0  0  0  0  0  0  0  0  0  0
   -7.8381    5.6314   -9.1296 C   0  0  0  0  0  0  0  0  0  0  0  0
   -7.6884    5.5821  -10.5118 C   0  0  0  0  0  0  0  0  0  0  0  0
   -8.0084    4.4204  -11.2376 C   0  0  0  0  0  0  0  0  0  0  0  0
   -7.8347    4.4094  -12.6181 N   0  0  0  0  0  0  0  0  0  0  0  0
   -7.3462    5.5178  -13.5766 C   0  0  0  0  0  0  0  0  0  0  0  0
   -7.0862    6.6371  -13.3695 O   0  0  0  0  0  0  0  0  0  0  0  0
   -7.2225    5.0441  -14.9635 C   0  0  0  0  0  0  0  0  0  0  0  0
   -8.3147    4.4842  -15.6274 C   0  0  0  0  0  0  0  0  0  0  0  0
   -8.2429    4.2501  -17.0011 C   0  0  0  0  0  0  0  0  0  0  0  0
   -9.4840    3.7712  -17.7273 C   0  0  0  0  0  0  0  0  0  0  0  0
   -9.4115    2.5839  -18.6520 C   0  0  0  0  0  0  0  0  0  0  0  0
   -9.6274    3.9555  -19.2160 C   0  0  0  0  0  0  0  0  0  0  0  0
   -7.1290    4.5221  -17.7242 N   0  0  0  0  0  0  0  0  0  0  0  0
   -6.1015    5.0604  -17.0496 C   0  0  0  0  0  0  0  0  0  0  0  0
   -6.0609    5.3301  -15.6929 C   0  0  0  0  0  0  0  0  0  0  0  0
   -4.7660    5.8665  -15.4673 C   0  0  0  0  0  0  0  0  0  0  0  0
   -4.1564    6.3091  -14.1878 C   0  0  0  0  0  0  0  0  0  0  0  0
   -4.0551    5.9481  -16.6006 N   0  0  0  0  0  0  0  0  0  0  0  0
   -4.9086    5.5018  -17.5565 N   0  0  0  0  0  0  0  0  0  0  0  0
   -4.4392    5.5546  -18.9224 C   0  0  0  0  0  0  0  0  0  0  0  0
   -5.4861    5.6740  -19.9967 C   0  0  0  0  0  0  0  0  0  0  0  0
   -6.3730    6.6499  -19.6879 F   0  0  0  0  0  0  0  0  0  0  0  0
   -6.1270    4.4990  -20.1806 F   0  0  0  0  0  0  0  0  0  0  0  0
   -8.4943    3.2840  -10.5830 C   0  0  0  0  0  0  0  0  0  0  0  0
   -8.6456    3.3467   -9.2056 C   0  0  0  0  0  0  0  0  0  0  0  0
   -9.1927    2.3290   -8.2480 C   0  0  0  0  0  0  0  0  0  0  0  0
  1  2  1  0
  2  3  1  0
  3  4  1  0
  4  5  1  0
  5  6  2  0
  6  7  1  0
  7  8  2  0
  8  9  1  0
  9 10  1  0
 10 11  2  0
 10 12  1  0
 12 13  2  0
 13 14  1  0
 14 15  1  0
 15 16  1  0
 16 17  1  0
 14 18  2  0
 18 19  1  0
 19 20  2  0
 20 21  1  0
 21 22  1  0
 21 23  2  0
 23 24  1  0
 24 25  1  0
 25 26  1  0
 26 27  1  0
 26 28  1  0
  8 29  1  0
 29 30  2  0
 30 31  1  0
 31  3  1  0
 30  5  1  0
 20 12  1  0
 17 15  1  0
 24 19  1  0
M  END
>  <name>  (619) 
P125410

>  <alias>  (619) 
None

>  <smina_score_min>  (619) 
-8.998

>  <exports>  (619) 
['/opt/xchem-fragalysis-2/maxwin/BulkDock/OUTPUTS/openbind_xx01zvns2b_c2_elabs_1LOUTNY.sdf', '/opt/xchem-fragalysis-2/maxwin/BulkDock/OUTPUTS/openbind_xx01zvns2b_c2_elabs_1LSYIIV.sdf']

>  <tags>  (619) 
syndirella_placed,openbind_xx01zvns2b_c2_elabs,openbind_xx01zvns2b_c2_elabs_scored_6.2plus,syndirella_product,openbind_xx01zvns2b_c2_elabs_scored,openbind_xx01zvns2b_c2_elabs_scored_top80percent,BulkDock Fragalysis export

>  <subsites>  (619) 
1 - Z4590/B/203/1

>  <smiles>  (619) 
CCN1Cc2ccc(NC(=O)c3cc(C4CC4)nc4c3c(C)nn4CC(F)F)cc2C1

>  <HIPPO Pose ID>  (619) 
125410

>  <energy_score>  (619) 
-10.940331

>  <inchikey>  (619) 
ZWAZDMLAULPNNO-UHFFFAOYSA-N

>  <gnina_score_min>  (619) 
6.454

>  <gnina_score>  (619) 
6.27

>  <ref_mols>  (619) 
Z3559a

>  <HIPPO Compound ID>  (619) 
178714

>  <distance_score>  (619) 
0.48812

>  <rmsd(smina/fragmenstein)>  (619) 
1.158

>  <ref_pdb>  (619) 
Z3559a

>  <inspiration_score>  (619) 
None

$$$$
P125412
     RDKit          3D

 31 35  0  0  0  0  0  0  0  0999 V2000
   -3.9969    6.2832  -14.5739 C   0  0  0  0  0  0  0  0  0  0  0  0
   -4.7259    5.8427  -15.7898 C   0  0  0  0  0  0  0  0  0  0  0  0
   -4.1212    5.9172  -16.9901 N   0  0  0  0  0  0  0  0  0  0  0  0
   -5.0719    5.4937  -17.8497 N   0  0  0  0  0  0  0  0  0  0  0  0
   -4.8500    5.4959  -19.2774 C   0  0  0  0  0  0  0  0  0  0  0  0
   -5.1017    6.8478  -19.9043 C   0  0  0  0  0  0  0  0  0  0  0  0
   -6.1629    7.4951  -19.3635 F   0  0  0  0  0  0  0  0  0  0  0  0
   -4.0287    7.6635  -19.7287 F   0  0  0  0  0  0  0  0  0  0  0  0
   -6.2057    5.0540  -17.2323 C   0  0  0  0  0  0  0  0  0  0  0  0
   -7.2730    4.5234  -17.8423 N   0  0  0  0  0  0  0  0  0  0  0  0
   -8.3243    4.2470  -17.0408 C   0  0  0  0  0  0  0  0  0  0  0  0
   -9.5969    3.7636  -17.6966 C   0  0  0  0  0  0  0  0  0  0  0  0
   -9.5492    2.5862  -18.6385 C   0  0  0  0  0  0  0  0  0  0  0  0
   -9.8248    3.9586  -19.1747 C   0  0  0  0  0  0  0  0  0  0  0  0
   -8.2882    4.4698  -15.6621 C   0  0  0  0  0  0  0  0  0  0  0  0
   -7.1405    5.0117  -15.0642 C   0  0  0  0  0  0  0  0  0  0  0  0
   -7.1529    5.4202  -13.6438 C   0  0  0  0  0  0  0  0  0  0  0  0
   -6.8330    6.5143  -13.3912 O   0  0  0  0  0  0  0  0  0  0  0  0
   -7.7041    4.3006  -12.7299 N   0  0  0  0  0  0  0  0  0  0  0  0
   -7.8806    4.2652  -11.3486 C   0  0  0  0  0  0  0  0  0  0  0  0
   -7.5850    5.3914  -10.5565 C   0  0  0  0  0  0  0  0  0  0  0  0
   -7.8046    5.3766   -9.1771 C   0  0  0  0  0  0  0  0  0  0  0  0
   -8.3108    4.2168   -8.6290 C   0  0  0  0  0  0  0  0  0  0  0  0
   -8.5998    3.0894   -9.3947 C   0  0  0  0  0  0  0  0  0  0  0  0
   -8.3877    3.0974  -10.7641 C   0  0  0  0  0  0  0  0  0  0  0  0
   -9.1718    2.0223   -8.5228 C   0  0  0  0  0  0  0  0  0  0  0  0
   -9.2336    2.6769   -7.2272 N   0  0  0  0  0  0  0  0  0  0  0  0
   -9.9693    2.1088   -6.1286 C   0  0  0  0  0  0  0  0  0  0  0  0
   -8.7272    3.9594   -7.2453 C   0  0  0  0  0  0  0  0  0  0  0  0
   -8.6765    4.7784   -6.3458 O   0  0  0  0  0  0  0  0  0  0  0  0
   -6.0436    5.3114  -15.8850 C   0  0  0  0  0  0  0  0  0  0  0  0
  1  2  1  0
  2  3  2  0
  3  4  1  0
  4  5  1  0
  5  6  1  0
  6  7  1  0
  6  8  1  0
  4  9  1  0
  9 10  2  0
 10 11  1  0
 11 12  1  0
 12 13  1  0
 13 14  1  0
 11 15  2  0
 15 16  1  0
 16 17  1  0
 17 18  2  0
 17 19  1  0
 19 20  1  0
 20 21  2  0
 21 22  1  0
 22 23  2  0
 23 24  1  0
 24 25  2  0
 24 26  1  0
 26 27  1  0
 27 28  1  0
 27 29  1  0
 29 30  2  0
 16 31  2  0
 31  2  1  0
 31  9  1  0
 14 12  1  0
 25 20  1  0
 29 23  1  0
M  END
>  <name>  (620) 
P125412

>  <alias>  (620) 
None

>  <smina_score_min>  (620) 
-9.111

>  <exports>  (620) 
['/opt/xchem-fragalysis-2/maxwin/BulkDock/OUTPUTS/openbind_xx01zvns2b_c2_elabs_1LOUTNY.sdf', '/opt/xchem-fragalysis-2/maxwin/BulkDock/OUTPUTS/openbind_xx01zvns2b_c2_elabs_1LSYIIV.sdf']

>  <tags>  (620) 
syndirella_placed,openbind_xx01zvns2b_c2_elabs,openbind_xx01zvns2b_c2_elabs_scored_6.2plus,syndirella_product,openbind_xx01zvns2b_c2_elabs_scored,openbind_xx01zvns2b_c2_elabs_scored_top80percent,BulkDock Fragalysis export

>  <subsites>  (620) 
1 - Z4590/B/203/1

>  <smiles>  (620) 
Cc1nn(CC(F)F)c2nc(C3CC3)cc(C(=O)Nc3ccc4c(c3)CN(C)C4=O)c12

>  <HIPPO Pose ID>  (620) 
125412

>  <energy_score>  (620) 
-43.663413

>  <inchikey>  (620) 
NDWSSPMYARTQSD-UHFFFAOYSA-N

>  <gnina_score_min>  (620) 
6.285

>  <gnina_score>  (620) 
6.276

>  <ref_mols>  (620) 
Z3559a

>  <HIPPO Compound ID>  (620) 
178746

>  <distance_score>  (620) 
0.383575

>  <rmsd(smina/fragmenstein)>  (620) 
0.847

>  <ref_pdb>  (620) 
Z3559a

>  <inspiration_score>  (620) 
None

$$$$
P125414
     RDKit          3D

 31 36  0  0  0  0  0  0  0  0999 V2000
   -9.9592    1.0402   -8.6965 O   0  0  0  0  0  0  0  0  0  0  0  0
   -9.4138    2.0654   -8.3500 C   0  0  0  0  0  0  0  0  0  0  0  0
   -9.3044    2.5361   -7.0583 N   0  0  0  0  0  0  0  0  0  0  0  0
   -8.6231    3.7978   -6.9850 C   0  0  0  0  0  0  0  0  0  0  0  0
   -8.3539    4.1118   -8.4171 C   0  0  0  0  0  0  0  0  0  0  0  0
   -7.7677    5.2257   -8.9815 C   0  0  0  0  0  0  0  0  0  0  0  0
   -7.6143    5.2538  -10.3732 C   0  0  0  0  0  0  0  0  0  0  0  0
   -8.0346    4.1797  -11.1844 C   0  0  0  0  0  0  0  0  0  0  0  0
   -7.8202    4.2177  -12.5636 N   0  0  0  0  0  0  0  0  0  0  0  0
   -7.1544    5.3012  -13.4489 C   0  0  0  0  0  0  0  0  0  0  0  0
   -6.6135    6.2943  -13.1526 O   0  0  0  0  0  0  0  0  0  0  0  0
   -7.1754    4.9571  -14.8940 C   0  0  0  0  0  0  0  0  0  0  0  0
   -8.2952    4.4205  -15.5413 C   0  0  0  0  0  0  0  0  0  0  0  0
   -8.2909    4.2458  -16.9332 C   0  0  0  0  0  0  0  0  0  0  0  0
   -9.5468    3.7733  -17.6357 C   0  0  0  0  0  0  0  0  0  0  0  0
   -9.7434    4.0074  -19.1136 C   0  0  0  0  0  0  0  0  0  0  0  0
   -9.4751    2.6224  -18.6089 C   0  0  0  0  0  0  0  0  0  0  0  0
   -7.2193    4.5538  -17.7029 N   0  0  0  0  0  0  0  0  0  0  0  0
   -6.1707    5.0715  -17.0477 C   0  0  0  0  0  0  0  0  0  0  0  0
   -6.0735    5.3033  -15.6896 C   0  0  0  0  0  0  0  0  0  0  0  0
   -4.7978    5.8844  -15.5309 C   0  0  0  0  0  0  0  0  0  0  0  0
   -4.1384    6.0233  -16.6860 N   0  0  0  0  0  0  0  0  0  0  0  0
   -4.9961    5.5169  -17.6028 N   0  0  0  0  0  0  0  0  0  0  0  0
   -4.6842    5.5204  -19.0304 C   0  0  0  0  0  0  0  0  0  0  0  0
   -3.1823    5.4022  -19.3582 C   0  0  0  0  0  0  0  0  0  0  0  0
   -2.4069    6.7173  -19.2567 C   0  0  0  0  0  0  0  0  0  0  0  0
   -3.0980    7.8575  -19.9949 C   0  0  0  0  0  0  0  0  0  0  0  0
   -4.5486    8.0158  -19.5553 C   0  0  0  0  0  0  0  0  0  0  0  0
   -5.3259    6.7176  -19.7470 C   0  0  0  0  0  0  0  0  0  0  0  0
   -8.6428    3.0639  -10.6063 C   0  0  0  0  0  0  0  0  0  0  0  0
   -8.7933    3.0653   -9.2282 C   0  0  0  0  0  0  0  0  0  0  0  0
  1  2  2  0
  2  3  1  0
  3  4  1  0
  4  5  1  0
  5  6  2  0
  6  7  1  0
  7  8  2  0
  8  9  1  0
  9 10  1  0
 10 11  2  0
 10 12  1  0
 12 13  2  0
 13 14  1  0
 14 15  1  0
 15 16  1  0
 16 17  1  0
 14 18  2  0
 18 19  1  0
 19 20  2  0
 20 21  1  0
 21 22  2  0
 22 23  1  0
 23 24  1  0
 24 25  1  0
 25 26  1  0
 26 27  1  0
 27 28  1  0
 28 29  1  0
  8 30  1  0
 30 31  2  0
 31  2  1  0
 31  5  1  0
 20 12  1  0
 29 24  1  0
 17 15  1  0
 23 19  1  0
M  END
>  <name>  (621) 
P125414

>  <alias>  (621) 
None

>  <smina_score_min>  (621) 
-9.303

>  <exports>  (621) 
['/opt/xchem-fragalysis-2/maxwin/BulkDock/OUTPUTS/openbind_xx01zvns2b_c2_elabs_1LOUTNY.sdf', '/opt/xchem-fragalysis-2/maxwin/BulkDock/OUTPUTS/openbind_xx01zvns2b_c2_elabs_1LSYIIV.sdf']

>  <tags>  (621) 
syndirella_placed,openbind_xx01zvns2b_c2_elabs,openbind_xx01zvns2b_c2_elabs_scored_6.2plus,syndirella_product,openbind_xx01zvns2b_c2_elabs_scored,openbind_xx01zvns2b_c2_elabs_scored_top80percent,BulkDock Fragalysis export

>  <subsites>  (621) 
1 - Z4590/B/203/1

>  <smiles>  (621) 
O=C1NCc2ccc(NC(=O)c3cc(C4CC4)nc4c3cnn4C3CCCCC3)cc21

>  <HIPPO Pose ID>  (621) 
125414

>  <energy_score>  (621) 
-57.894246

>  <inchikey>  (621) 
AXFMVWNTVCJXTE-UHFFFAOYSA-N

>  <gnina_score_min>  (621) 
6.292

>  <gnina_score>  (621) 
6.445

>  <ref_mols>  (621) 
Z3559a

>  <HIPPO Compound ID>  (621) 
178636

>  <distance_score>  (621) 
0.332486

>  <rmsd(smina/fragmenstein)>  (621) 
0.639

>  <ref_pdb>  (621) 
Z3559a

>  <inspiration_score>  (621) 
None

$$$$
P125415
     RDKit          3D

 31 36  0  0  0  0  0  0  0  0999 V2000
   -8.2397    4.3871   -6.0759 O   0  0  0  0  0  0  0  0  0  0  0  0
   -8.5232    3.6974   -7.0374 C   0  0  0  0  0  0  0  0  0  0  0  0
   -9.0446    2.4210   -7.0324 N   0  0  0  0  0  0  0  0  0  0  0  0
   -9.0352    1.8233   -8.3518 C   0  0  0  0  0  0  0  0  0  0  0  0
   -8.6446    2.9635   -9.2313 C   0  0  0  0  0  0  0  0  0  0  0  0
   -8.5239    3.0246  -10.6119 C   0  0  0  0  0  0  0  0  0  0  0  0
   -8.0804    4.2228  -11.1857 C   0  0  0  0  0  0  0  0  0  0  0  0
   -7.9166    4.2939  -12.5694 N   0  0  0  0  0  0  0  0  0  0  0  0
   -7.2905    5.3989  -13.4510 C   0  0  0  0  0  0  0  0  0  0  0  0
   -6.8839    6.4557  -13.1650 O   0  0  0  0  0  0  0  0  0  0  0  0
   -7.2204    5.0076  -14.8784 C   0  0  0  0  0  0  0  0  0  0  0  0
   -8.3069    4.4540  -15.5584 C   0  0  0  0  0  0  0  0  0  0  0  0
   -8.2492    4.2823  -16.9459 C   0  0  0  0  0  0  0  0  0  0  0  0
   -9.4857    3.7959  -17.6788 C   0  0  0  0  0  0  0  0  0  0  0  0
   -9.6380    3.9998  -19.1652 C   0  0  0  0  0  0  0  0  0  0  0  0
   -9.3944    2.6243  -18.6240 C   0  0  0  0  0  0  0  0  0  0  0  0
   -7.1549    4.6137  -17.6777 N   0  0  0  0  0  0  0  0  0  0  0  0
   -6.1207    5.1312  -16.9904 C   0  0  0  0  0  0  0  0  0  0  0  0
   -6.0855    5.3499  -15.6231 C   0  0  0  0  0  0  0  0  0  0  0  0
   -4.8300    5.9367  -15.3877 C   0  0  0  0  0  0  0  0  0  0  0  0
   -4.1198    6.1014  -16.5035 N   0  0  0  0  0  0  0  0  0  0  0  0
   -4.9194    5.5995  -17.4829 N   0  0  0  0  0  0  0  0  0  0  0  0
   -4.4992    5.8130  -18.8697 C   0  0  0  0  0  0  0  0  0  0  0  0
   -3.0007    5.5272  -19.0906 C   0  0  0  0  0  0  0  0  0  0  0  0
   -2.5129    5.9570  -20.4782 C   0  0  0  0  0  0  0  0  0  0  0  0
   -3.6195    6.0411  -21.5261 C   0  0  0  0  0  0  0  0  0  0  0  0
   -4.6701    4.9678  -21.3036 C   0  0  0  0  0  0  0  0  0  0  0  0
   -5.3456    5.0975  -19.9356 C   0  0  0  0  0  0  0  0  0  0  0  0
   -7.7831    5.3355  -10.3734 C   0  0  0  0  0  0  0  0  0  0  0  0
   -7.9070    5.2660   -8.9830 C   0  0  0  0  0  0  0  0  0  0  0  0
   -8.3343    4.0704   -8.4449 C   0  0  0  0  0  0  0  0  0  0  0  0
  1  2  2  0
  2  3  1  0
  3  4  1  0
  4  5  1  0
  5  6  2  0
  6  7  1  0
  7  8  1  0
  8  9  1  0
  9 10  2  0
  9 11  1  0
 11 12  2  0
 12 13  1  0
 13 14  1  0
 14 15  1  0
 15 16  1  0
 13 17  2  0
 17 18  1  0
 18 19  2  0
 19 20  1  0
 20 21  2  0
 21 22  1  0
 22 23  1  0
 23 24  1  0
 24 25  1  0
 25 26  1  0
 26 27  1  0
 27 28  1  0
  7 29  2  0
 29 30  1  0
 30 31  2  0
 31  2  1  0
 31  5  1  0
 19 11  1  0
 28 23  1  0
 16 14  1  0
 22 18  1  0
M  END
>  <name>  (622) 
P125415

>  <alias>  (622) 
None

>  <smina_score_min>  (622) 
-9.983

>  <exports>  (622) 
['/opt/xchem-fragalysis-2/maxwin/BulkDock/OUTPUTS/openbind_xx01zvns2b_c2_elabs_1LOUTNY.sdf', '/opt/xchem-fragalysis-2/maxwin/BulkDock/OUTPUTS/openbind_xx01zvns2b_c2_elabs_1LSYIIV.sdf']

>  <tags>  (622) 
syndirella_placed,openbind_xx01zvns2b_c2_elabs,openbind_xx01zvns2b_c2_elabs_scored_6.2plus,syndirella_product,openbind_xx01zvns2b_c2_elabs_scored,openbind_xx01zvns2b_c2_elabs_scored_top80percent,BulkDock Fragalysis export

>  <subsites>  (622) 
1 - Z4590/B/203/1

>  <smiles>  (622) 
O=C1NCc2cc(NC(=O)c3cc(C4CC4)nc4c3cnn4C3CCCCC3)ccc21

>  <HIPPO Pose ID>  (622) 
125415

>  <energy_score>  (622) 
-13.575875

>  <inchikey>  (622) 
RHJAPXASYWVTLR-UHFFFAOYSA-N

>  <gnina_score_min>  (622) 
6.529

>  <gnina_score>  (622) 
6.497

>  <ref_mols>  (622) 
Z3559a

>  <HIPPO Compound ID>  (622) 
178635

>  <distance_score>  (622) 
0.367808

>  <rmsd(smina/fragmenstein)>  (622) 
0.708

>  <ref_pdb>  (622) 
Z3559a

>  <inspiration_score>  (622) 
None

$$$$
P125418
     RDKit          3D

 31 35  0  0  0  0  0  0  0  0999 V2000
   -9.9465    3.7284   -4.4378 C   0  0  0  0  0  0  0  0  0  0  0  0
  -10.6191    2.6403   -5.2628 C   0  0  0  0  0  0  0  0  0  0  0  0
   -9.7412    1.9984   -6.3403 C   0  0  0  0  0  0  0  0  0  0  0  0
   -9.6073    2.8348   -7.5139 N   0  0  0  0  0  0  0  0  0  0  0  0
   -8.6902    3.9735   -7.3630 C   0  0  0  0  0  0  0  0  0  0  0  0
   -8.2646    4.2577   -8.7618 C   0  0  0  0  0  0  0  0  0  0  0  0
   -7.7241    5.4101   -9.2882 C   0  0  0  0  0  0  0  0  0  0  0  0
   -7.5046    5.4429  -10.6609 C   0  0  0  0  0  0  0  0  0  0  0  0
   -7.8190    4.3335  -11.4654 C   0  0  0  0  0  0  0  0  0  0  0  0
   -7.6517    4.3914  -12.8372 N   0  0  0  0  0  0  0  0  0  0  0  0
   -7.1123    5.5213  -13.7317 C   0  0  0  0  0  0  0  0  0  0  0  0
   -6.7948    6.6108  -13.4645 O   0  0  0  0  0  0  0  0  0  0  0  0
   -7.0699    5.1022  -15.1366 C   0  0  0  0  0  0  0  0  0  0  0  0
   -8.1739    4.5296  -15.7666 C   0  0  0  0  0  0  0  0  0  0  0  0
   -8.1315    4.2784  -17.1375 C   0  0  0  0  0  0  0  0  0  0  0  0
   -9.3939    3.7734  -17.8079 C   0  0  0  0  0  0  0  0  0  0  0  0
   -9.5910    3.9188  -19.2921 C   0  0  0  0  0  0  0  0  0  0  0  0
   -9.3541    2.5619  -18.7006 C   0  0  0  0  0  0  0  0  0  0  0  0
   -7.0330    4.5496  -17.8910 N   0  0  0  0  0  0  0  0  0  0  0  0
   -5.9960    5.1079  -17.2430 C   0  0  0  0  0  0  0  0  0  0  0  0
   -5.9397    5.3969  -15.8933 C   0  0  0  0  0  0  0  0  0  0  0  0
   -4.6682    5.9602  -15.6881 C   0  0  0  0  0  0  0  0  0  0  0  0
   -3.9516    6.0259  -16.8121 N   0  0  0  0  0  0  0  0  0  0  0  0
   -4.8046    5.5507  -17.7602 N   0  0  0  0  0  0  0  0  0  0  0  0
   -4.3370    5.5853  -19.1258 C   0  0  0  0  0  0  0  0  0  0  0  0
   -5.3886    5.7227  -20.1906 C   0  0  0  0  0  0  0  0  0  0  0  0
   -6.0363    4.5520  -20.3734 F   0  0  0  0  0  0  0  0  0  0  0  0
   -6.2641    6.7040  -19.8674 F   0  0  0  0  0  0  0  0  0  0  0  0
   -8.3339    3.1615  -10.9141 C   0  0  0  0  0  0  0  0  0  0  0  0
   -8.5561    3.1473   -9.5560 C   0  0  0  0  0  0  0  0  0  0  0  0
   -9.1474    2.0801   -8.6966 C   0  0  0  0  0  0  0  0  0  0  0  0
  1  2  1  0
  2  3  1  0
  3  4  1  0
  4  5  1  0
  5  6  1  0
  6  7  2  0
  7  8  1  0
  8  9  2  0
  9 10  1  0
 10 11  1  0
 11 12  2  0
 11 13  1  0
 13 14  2  0
 14 15  1  0
 15 16  1  0
 16 17  1  0
 17 18  1  0
 15 19  2  0
 19 20  1  0
 20 21  2  0
 21 22  1  0
 22 23  2  0
 23 24  1  0
 24 25  1  0
 25 26  1  0
 26 27  1  0
 26 28  1  0
  9 29  1  0
 29 30  2  0
 30 31  1  0
 31  4  1  0
 30  6  1  0
 21 13  1  0
 18 16  1  0
 24 20  1  0
M  END
>  <name>  (623) 
P125418

>  <alias>  (623) 
None

>  <smina_score_min>  (623) 
-8.954

>  <exports>  (623) 
['/opt/xchem-fragalysis-2/maxwin/BulkDock/OUTPUTS/openbind_xx01zvns2b_c2_elabs_1LOUTNY.sdf', '/opt/xchem-fragalysis-2/maxwin/BulkDock/OUTPUTS/openbind_xx01zvns2b_c2_elabs_1LSYIIV.sdf']

>  <tags>  (623) 
syndirella_placed,openbind_xx01zvns2b_c2_elabs,openbind_xx01zvns2b_c2_elabs_scored_6.2plus,syndirella_product,openbind_xx01zvns2b_c2_elabs_scored,openbind_xx01zvns2b_c2_elabs_scored_top80percent,BulkDock Fragalysis export

>  <subsites>  (623) 
1 - Z4590/B/203/1

>  <smiles>  (623) 
CCCN1Cc2ccc(NC(=O)c3cc(C4CC4)nc4c3cnn4CC(F)F)cc2C1

>  <HIPPO Pose ID>  (623) 
125418

>  <energy_score>  (623) 
-15.071563

>  <inchikey>  (623) 
WDNDWDVTVHJUQG-UHFFFAOYSA-N

>  <gnina_score_min>  (623) 
6.32

>  <gnina_score>  (623) 
6.242

>  <ref_mols>  (623) 
Z3559a

>  <HIPPO Compound ID>  (623) 
178567

>  <distance_score>  (623) 
0.530382

>  <rmsd(smina/fragmenstein)>  (623) 
1.191

>  <ref_pdb>  (623) 
Z3559a

>  <inspiration_score>  (623) 
None

$$$$
P125419
     RDKit          3D

 31 35  0  0  0  0  0  0  0  0999 V2000
  -12.1018    2.3598   -5.0233 C   0  0  0  0  0  0  0  0  0  0  0  0
  -10.6684    2.7510   -5.1807 C   0  0  0  0  0  0  0  0  0  0  0  0
  -10.1302    2.0278   -6.3924 C   0  0  0  0  0  0  0  0  0  0  0  0
   -8.6466    2.2392   -6.4961 C   0  0  0  0  0  0  0  0  0  0  0  0
   -8.2350    3.1786   -7.4939 N   0  0  0  0  0  0  0  0  0  0  0  0
   -8.5890    4.5794   -7.4080 C   0  0  0  0  0  0  0  0  0  0  0  0
   -8.3062    5.0701   -8.7941 C   0  0  0  0  0  0  0  0  0  0  0  0
   -8.2914    6.3586   -9.2978 C   0  0  0  0  0  0  0  0  0  0  0  0
   -8.0045    6.5383  -10.6556 C   0  0  0  0  0  0  0  0  0  0  0  0
   -7.6388    5.4427  -11.4386 C   0  0  0  0  0  0  0  0  0  0  0  0
   -7.4343    5.5421  -12.7987 N   0  0  0  0  0  0  0  0  0  0  0  0
   -6.4114    4.8420  -13.7088 C   0  0  0  0  0  0  0  0  0  0  0  0
   -5.5291    4.1295  -13.4444 O   0  0  0  0  0  0  0  0  0  0  0  0
   -6.6872    5.0578  -15.1481 C   0  0  0  0  0  0  0  0  0  0  0  0
   -7.9256    4.6649  -15.7014 C   0  0  0  0  0  0  0  0  0  0  0  0
   -9.3036    4.5229  -14.6843 Cl  0  0  0  0  0  0  0  0  0  0  0  0
   -8.0724    4.4609  -17.0861 C   0  0  0  0  0  0  0  0  0  0  0  0
   -9.3732    3.9304  -17.7029 C   0  0  0  0  0  0  0  0  0  0  0  0
   -9.3301    2.7156  -18.6032 C   0  0  0  0  0  0  0  0  0  0  0  0
   -9.6426    4.0600  -19.1813 C   0  0  0  0  0  0  0  0  0  0  0  0
   -7.0653    4.7508  -17.9418 N   0  0  0  0  0  0  0  0  0  0  0  0
   -5.9268    5.1847  -17.3816 C   0  0  0  0  0  0  0  0  0  0  0  0
   -5.6507    5.3481  -16.0358 C   0  0  0  0  0  0  0  0  0  0  0  0
   -4.2917    5.7581  -15.9964 C   0  0  0  0  0  0  0  0  0  0  0  0
   -3.4475    6.0401  -14.8081 C   0  0  0  0  0  0  0  0  0  0  0  0
   -3.7771    5.9048  -17.2283 N   0  0  0  0  0  0  0  0  0  0  0  0
   -4.7847    5.5234  -18.0445 N   0  0  0  0  0  0  0  0  0  0  0  0
   -4.6034    5.5205  -19.4739 C   0  0  0  0  0  0  0  0  0  0  0  0
   -7.6591    4.1423  -10.9246 C   0  0  0  0  0  0  0  0  0  0  0  0
   -8.0511    3.9740   -9.6202 C   0  0  0  0  0  0  0  0  0  0  0  0
   -8.2970    2.7102   -8.8745 C   0  0  0  0  0  0  0  0  0  0  0  0
  1  2  1  0
  2  3  1  0
  3  4  1  0
  4  5  1  0
  5  6  1  0
  6  7  1  0
  7  8  2  0
  8  9  1  0
  9 10  2  0
 10 11  1  0
 11 12  1  0
 12 13  2  0
 12 14  1  0
 14 15  2  0
 15 16  1  0
 15 17  1  0
 17 18  1  0
 18 19  1  0
 19 20  1  0
 17 21  2  0
 21 22  1  0
 22 23  2  0
 23 24  1  0
 24 25  1  0
 24 26  2  0
 26 27  1  0
 27 28  1  0
 10 29  1  0
 29 30  2  0
 30 31  1  0
 31  5  1  0
 30  7  1  0
 23 14  1  0
 20 18  1  0
 27 22  1  0
M  END
>  <name>  (624) 
P125419

>  <alias>  (624) 
None

>  <smina_score_min>  (624) 
-7.823

>  <exports>  (624) 
['/opt/xchem-fragalysis-2/maxwin/BulkDock/OUTPUTS/openbind_xx01zvns2b_c2_elabs_1LOUTNY.sdf', '/opt/xchem-fragalysis-2/maxwin/BulkDock/OUTPUTS/openbind_xx01zvns2b_c2_elabs_1LSYIIV.sdf']

>  <tags>  (624) 
syndirella_placed,openbind_xx01zvns2b_c2_elabs,openbind_xx01zvns2b_c2_elabs_scored_6.2plus,syndirella_product,openbind_xx01zvns2b_c2_elabs_scored,openbind_xx01zvns2b_c2_elabs_scored_top80percent,BulkDock Fragalysis export

>  <subsites>  (624) 
1 - Z4590/B/203/1

>  <smiles>  (624) 
CCCCN1Cc2ccc(NC(=O)c3c(Cl)c(C4CC4)nc4c3c(C)nn4C)cc2C1

>  <HIPPO Pose ID>  (624) 
125419

>  <energy_score>  (624) 
-6.60517

>  <inchikey>  (624) 
FPFZCRLPTYIDES-UHFFFAOYSA-N

>  <gnina_score_min>  (624) 
6.315

>  <gnina_score>  (624) 
6.208

>  <ref_mols>  (624) 
Z3559a

>  <HIPPO Compound ID>  (624) 
178783

>  <distance_score>  (624) 
1.02048

>  <rmsd(smina/fragmenstein)>  (624) 
0.977

>  <ref_pdb>  (624) 
Z3559a

>  <inspiration_score>  (624) 
None

$$$$
P125420
     RDKit          3D

 31 35  0  0  0  0  0  0  0  0999 V2000
   -4.1981    6.6659  -14.3489 C   0  0  0  0  0  0  0  0  0  0  0  0
   -4.8154    6.1234  -15.5860 C   0  0  0  0  0  0  0  0  0  0  0  0
   -4.1815    6.2923  -16.7598 N   0  0  0  0  0  0  0  0  0  0  0  0
   -4.9758    5.6577  -17.6455 N   0  0  0  0  0  0  0  0  0  0  0  0
   -4.7072    5.7626  -19.0677 C   0  0  0  0  0  0  0  0  0  0  0  0
   -5.6089    6.8112  -19.7125 C   0  0  0  0  0  0  0  0  0  0  0  0
   -5.3597    8.1433  -19.2432 O   0  0  0  0  0  0  0  0  0  0  0  0
   -6.0957    5.1218  -17.0850 C   0  0  0  0  0  0  0  0  0  0  0  0
   -7.0546    4.4617  -17.7415 N   0  0  0  0  0  0  0  0  0  0  0  0
   -8.1093    4.0783  -16.9940 C   0  0  0  0  0  0  0  0  0  0  0  0
   -9.1507    3.2341  -17.6737 C   0  0  0  0  0  0  0  0  0  0  0  0
   -9.1829    3.1636  -19.1781 C   0  0  0  0  0  0  0  0  0  0  0  0
  -10.3040    3.8284  -18.4424 C   0  0  0  0  0  0  0  0  0  0  0  0
   -8.2140    4.3757  -15.6321 C   0  0  0  0  0  0  0  0  0  0  0  0
   -7.1747    5.0563  -14.9795 C   0  0  0  0  0  0  0  0  0  0  0  0
   -7.2861    5.4698  -13.5609 C   0  0  0  0  0  0  0  0  0  0  0  0
   -6.9535    6.5554  -13.2882 O   0  0  0  0  0  0  0  0  0  0  0  0
   -7.8312    4.3329  -12.6638 N   0  0  0  0  0  0  0  0  0  0  0  0
   -7.9853    4.2665  -11.2794 C   0  0  0  0  0  0  0  0  0  0  0  0
   -7.6146    5.3608  -10.4675 C   0  0  0  0  0  0  0  0  0  0  0  0
   -7.7720    5.3211   -9.0781 C   0  0  0  0  0  0  0  0  0  0  0  0
   -8.3182    4.1761   -8.5401 C   0  0  0  0  0  0  0  0  0  0  0  0
   -8.6972    3.1091   -9.3314 C   0  0  0  0  0  0  0  0  0  0  0  0
   -8.5302    3.1133  -10.7061 C   0  0  0  0  0  0  0  0  0  0  0  0
   -9.3753    2.1509   -8.4629 C   0  0  0  0  0  0  0  0  0  0  0  0
   -9.9558    1.1666   -8.8721 O   0  0  0  0  0  0  0  0  0  0  0  0
   -9.3134    2.6568   -7.1936 N   0  0  0  0  0  0  0  0  0  0  0  0
  -10.0368    2.0877   -6.0870 C   0  0  0  0  0  0  0  0  0  0  0  0
   -8.7124    3.8810   -7.1643 C   0  0  0  0  0  0  0  0  0  0  0  0
   -8.5623    4.6577   -6.2377 O   0  0  0  0  0  0  0  0  0  0  0  0
   -6.0583    5.4428  -15.7415 C   0  0  0  0  0  0  0  0  0  0  0  0
  1  2  1  0
  2  3  2  0
  3  4  1  0
  4  5  1  0
  5  6  1  0
  6  7  1  0
  4  8  1  0
  8  9  2  0
  9 10  1  0
 10 11  1  0
 11 12  1  0
 12 13  1  0
 10 14  2  0
 14 15  1  0
 15 16  1  0
 16 17  2  0
 16 18  1  0
 18 19  1  0
 19 20  2  0
 20 21  1  0
 21 22  2  0
 22 23  1  0
 23 24  2  0
 23 25  1  0
 25 26  2  0
 25 27  1  0
 27 28  1  0
 27 29  1  0
 29 30  2  0
 15 31  2  0
 31  2  1  0
 31  8  1  0
 13 11  1  0
 24 19  1  0
 29 22  1  0
M  END
>  <name>  (625) 
P125420

>  <alias>  (625) 
None

>  <smina_score_min>  (625) 
-8.824

>  <exports>  (625) 
['/opt/xchem-fragalysis-2/maxwin/BulkDock/OUTPUTS/openbind_xx01zvns2b_c2_elabs_1LOUTNY.sdf', '/opt/xchem-fragalysis-2/maxwin/BulkDock/OUTPUTS/openbind_xx01zvns2b_c2_elabs_1LSYIIV.sdf']

>  <tags>  (625) 
syndirella_placed,openbind_xx01zvns2b_c2_elabs,openbind_xx01zvns2b_c2_elabs_scored_6.2plus,syndirella_product,openbind_xx01zvns2b_c2_elabs_scored,openbind_xx01zvns2b_c2_elabs_scored_top80percent,BulkDock Fragalysis export

>  <subsites>  (625) 
1 - Z4590/B/203/1

>  <smiles>  (625) 
Cc1nn(CCO)c2nc(C3CC3)cc(C(=O)Nc3ccc4c(c3)C(=O)N(C)C4=O)c12

>  <HIPPO Pose ID>  (625) 
125420

>  <energy_score>  (625) 
-30.100308

>  <inchikey>  (625) 
XUOAPYUOYBRHBK-UHFFFAOYSA-N

>  <gnina_score_min>  (625) 
6.357

>  <gnina_score>  (625) 
6.235

>  <ref_mols>  (625) 
Z3559a

>  <HIPPO Compound ID>  (625) 
178928

>  <distance_score>  (625) 
0.490425

>  <rmsd(smina/fragmenstein)>  (625) 
0.787

>  <ref_pdb>  (625) 
Z3559a

>  <inspiration_score>  (625) 
None

$$$$
P125421
     RDKit          3D

 31 35  0  0  0  0  0  0  0  0999 V2000
   -9.9970    4.7151   -4.5766 C   0  0  0  0  0  0  0  0  0  0  0  0
  -10.0726    3.2123   -4.7755 C   0  0  0  0  0  0  0  0  0  0  0  0
  -10.1103    2.6617   -6.2075 C   0  0  0  0  0  0  0  0  0  0  0  0
   -8.9319    2.8779   -7.0364 N   0  0  0  0  0  0  0  0  0  0  0  0
   -8.5522    4.2759   -7.2343 C   0  0  0  0  0  0  0  0  0  0  0  0
   -8.2177    4.4206   -8.6732 C   0  0  0  0  0  0  0  0  0  0  0  0
   -7.7482    5.5466   -9.3155 C   0  0  0  0  0  0  0  0  0  0  0  0
   -7.5728    5.4794  -10.6912 C   0  0  0  0  0  0  0  0  0  0  0  0
   -7.8664    4.3029  -11.4018 C   0  0  0  0  0  0  0  0  0  0  0  0
   -7.6944    4.2909  -12.7843 N   0  0  0  0  0  0  0  0  0  0  0  0
   -7.0685    5.3446  -13.7278 C   0  0  0  0  0  0  0  0  0  0  0  0
   -6.6692    6.4193  -13.5038 O   0  0  0  0  0  0  0  0  0  0  0  0
   -7.0683    4.9164  -15.1403 C   0  0  0  0  0  0  0  0  0  0  0  0
   -8.2252    4.3858  -15.7247 C   0  0  0  0  0  0  0  0  0  0  0  0
   -8.3027    4.2399  -17.1117 C   0  0  0  0  0  0  0  0  0  0  0  0
   -9.5868    3.7574  -17.7419 C   0  0  0  0  0  0  0  0  0  0  0  0
   -9.8415    3.9325  -19.2166 C   0  0  0  0  0  0  0  0  0  0  0  0
   -9.5540    2.5675  -18.6669 C   0  0  0  0  0  0  0  0  0  0  0  0
   -7.2935    4.6024  -17.9361 N   0  0  0  0  0  0  0  0  0  0  0  0
   -6.2027    5.0914  -17.3329 C   0  0  0  0  0  0  0  0  0  0  0  0
   -5.9943    5.2564  -15.9774 C   0  0  0  0  0  0  0  0  0  0  0  0
   -4.6802    5.7966  -15.8890 C   0  0  0  0  0  0  0  0  0  0  0  0
   -3.9010    6.1418  -14.6732 C   0  0  0  0  0  0  0  0  0  0  0  0
   -4.1389    6.0089  -17.1012 N   0  0  0  0  0  0  0  0  0  0  0  0
   -5.1110    5.6255  -17.9576 N   0  0  0  0  0  0  0  0  0  0  0  0
   -5.0756    6.0517  -19.3382 C   0  0  0  0  0  0  0  0  0  0  0  0
   -5.0189    4.9244  -20.3508 C   0  0  0  0  0  0  0  0  0  0  0  0
   -5.3501    5.4122  -21.6511 O   0  0  0  0  0  0  0  0  0  0  0  0
   -8.3465    3.1694  -10.7328 C   0  0  0  0  0  0  0  0  0  0  0  0
   -8.5152    3.2475   -9.3566 C   0  0  0  0  0  0  0  0  0  0  0  0
   -9.0453    2.2387   -8.3797 C   0  0  0  0  0  0  0  0  0  0  0  0
  1  2  1  0
  2  3  1  0
  3  4  1  0
  4  5  1  0
  5  6  1  0
  6  7  2  0
  7  8  1  0
  8  9  2  0
  9 10  1  0
 10 11  1  0
 11 12  2  0
 11 13  1  0
 13 14  2  0
 14 15  1  0
 15 16  1  0
 16 17  1  0
 17 18  1  0
 15 19  2  0
 19 20  1  0
 20 21  2  0
 21 22  1  0
 22 23  1  0
 22 24  2  0
 24 25  1  0
 25 26  1  0
 26 27  1  0
 27 28  1  0
  9 29  1  0
 29 30  2  0
 30 31  1  0
 31  4  1  0
 30  6  1  0
 21 13  1  0
 18 16  1  0
 25 20  1  0
M  END
>  <name>  (626) 
P125421

>  <alias>  (626) 
None

>  <smina_score_min>  (626) 
-8.896

>  <exports>  (626) 
['/opt/xchem-fragalysis-2/maxwin/BulkDock/OUTPUTS/openbind_xx01zvns2b_c2_elabs_1LOUTNY.sdf', '/opt/xchem-fragalysis-2/maxwin/BulkDock/OUTPUTS/openbind_xx01zvns2b_c2_elabs_1LSYIIV.sdf']

>  <tags>  (626) 
syndirella_placed,openbind_xx01zvns2b_c2_elabs,openbind_xx01zvns2b_c2_elabs_scored_6.2plus,syndirella_product,openbind_xx01zvns2b_c2_elabs_scored,openbind_xx01zvns2b_c2_elabs_scored_top80percent,BulkDock Fragalysis export

>  <subsites>  (626) 
1 - Z4590/B/203/1

>  <smiles>  (626) 
CCCN1Cc2ccc(NC(=O)c3cc(C4CC4)nc4c3c(C)nn4CCO)cc2C1

>  <HIPPO Pose ID>  (626) 
125421

>  <energy_score>  (626) 
-23.870021

>  <inchikey>  (626) 
QLDWHGKCLGXKIA-UHFFFAOYSA-N

>  <gnina_score_min>  (626) 
6.208

>  <gnina_score>  (626) 
6.303

>  <ref_mols>  (626) 
Z3559a

>  <HIPPO Compound ID>  (626) 
178926

>  <distance_score>  (626) 
0.468362

>  <rmsd(smina/fragmenstein)>  (626) 
0.902

>  <ref_pdb>  (626) 
Z3559a

>  <inspiration_score>  (626) 
None

$$$$
P125422
     RDKit          3D

 31 35  0  0  0  0  0  0  0  0999 V2000
   -3.5461    6.3135  -14.8220 C   0  0  0  0  0  0  0  0  0  0  0  0
   -4.3516    5.8638  -15.9856 C   0  0  0  0  0  0  0  0  0  0  0  0
   -3.8165    5.9044  -17.2167 N   0  0  0  0  0  0  0  0  0  0  0  0
   -4.8045    5.4431  -18.0126 N   0  0  0  0  0  0  0  0  0  0  0  0
   -4.6348    5.4314  -19.4430 C   0  0  0  0  0  0  0  0  0  0  0  0
   -5.9298    5.0802  -17.3339 C   0  0  0  0  0  0  0  0  0  0  0  0
   -7.0444    4.5614  -17.8705 N   0  0  0  0  0  0  0  0  0  0  0  0
   -8.0787    4.3728  -17.0165 C   0  0  0  0  0  0  0  0  0  0  0  0
   -9.3785    3.8401  -17.6246 C   0  0  0  0  0  0  0  0  0  0  0  0
   -9.3343    2.7005  -18.6179 C   0  0  0  0  0  0  0  0  0  0  0  0
   -9.7044    4.0764  -19.0795 C   0  0  0  0  0  0  0  0  0  0  0  0
   -7.9629    4.7081  -15.6544 C   0  0  0  0  0  0  0  0  0  0  0  0
   -9.3564    4.7222  -14.6424 Cl  0  0  0  0  0  0  0  0  0  0  0  0
   -6.7413    5.1602  -15.1182 C   0  0  0  0  0  0  0  0  0  0  0  0
   -6.6228    5.5345  -13.6887 C   0  0  0  0  0  0  0  0  0  0  0  0
   -6.2710    6.6119  -13.4090 O   0  0  0  0  0  0  0  0  0  0  0  0
   -7.1130    4.3751  -12.7903 N   0  0  0  0  0  0  0  0  0  0  0  0
   -7.3535    4.3328  -11.4229 C   0  0  0  0  0  0  0  0  0  0  0  0
   -7.1128    5.4310  -10.5850 C   0  0  0  0  0  0  0  0  0  0  0  0
   -7.4867    5.3924   -9.2374 C   0  0  0  0  0  0  0  0  0  0  0  0
   -8.1050    4.2505   -8.7658 C   0  0  0  0  0  0  0  0  0  0  0  0
   -8.3375    3.1577   -9.6005 C   0  0  0  0  0  0  0  0  0  0  0  0
   -7.9641    3.1768  -10.9270 C   0  0  0  0  0  0  0  0  0  0  0  0
   -9.0232    2.0790   -8.8304 C   0  0  0  0  0  0  0  0  0  0  0  0
   -9.5145    2.7824   -7.6360 N   0  0  0  0  0  0  0  0  0  0  0  0
   -9.6850    1.9015   -6.4875 C   0  0  0  0  0  0  0  0  0  0  0  0
  -10.2739    2.5814   -5.2492 C   0  0  0  0  0  0  0  0  0  0  0  0
   -9.3475    3.3785   -4.6472 F   0  0  0  0  0  0  0  0  0  0  0  0
  -11.3117    3.3944   -5.5767 F   0  0  0  0  0  0  0  0  0  0  0  0
   -8.6281    3.9342   -7.4020 C   0  0  0  0  0  0  0  0  0  0  0  0
   -5.6877    5.3817  -16.0053 C   0  0  0  0  0  0  0  0  0  0  0  0
  1  2  1  0
  2  3  2  0
  3  4  1  0
  4  5  1  0
  4  6  1  0
  6  7  2  0
  7  8  1  0
  8  9  1  0
  9 10  1  0
 10 11  1  0
  8 12  2  0
 12 13  1  0
 12 14  1  0
 14 15  1  0
 15 16  2  0
 15 17  1  0
 17 18  1  0
 18 19  2  0
 19 20  1  0
 20 21  2  0
 21 22  1  0
 22 23  2  0
 22 24  1  0
 24 25  1  0
 25 26  1  0
 26 27  1  0
 27 28  1  0
 27 29  1  0
 25 30  1  0
 14 31  2  0
 31  2  1  0
 31  6  1  0
 11  9  1  0
 23 18  1  0
 30 21  1  0
M  END
>  <name>  (627) 
P125422

>  <alias>  (627) 
None

>  <smina_score_min>  (627) 
-8.676

>  <exports>  (627) 
['/opt/xchem-fragalysis-2/maxwin/BulkDock/OUTPUTS/openbind_xx01zvns2b_c2_elabs_1LOUTNY.sdf', '/opt/xchem-fragalysis-2/maxwin/BulkDock/OUTPUTS/openbind_xx01zvns2b_c2_elabs_1LSYIIV.sdf']

>  <tags>  (627) 
syndirella_placed,openbind_xx01zvns2b_c2_elabs,openbind_xx01zvns2b_c2_elabs_scored_6.2plus,syndirella_product,openbind_xx01zvns2b_c2_elabs_scored,openbind_xx01zvns2b_c2_elabs_scored_top80percent,BulkDock Fragalysis export

>  <subsites>  (627) 
1 - Z4590/B/203/1

>  <smiles>  (627) 
Cc1nn(C)c2nc(C3CC3)c(Cl)c(C(=O)Nc3ccc4c(c3)CN(CC(F)F)C4)c12

>  <HIPPO Pose ID>  (627) 
125422

>  <energy_score>  (627) 
-50.014262

>  <inchikey>  (627) 
PBUWVXNRZONFSN-UHFFFAOYSA-N

>  <gnina_score_min>  (627) 
6.537

>  <gnina_score>  (627) 
6.493

>  <ref_mols>  (627) 
Z3559a

>  <HIPPO Compound ID>  (627) 
178784

>  <distance_score>  (627) 
0.691681

>  <rmsd(smina/fragmenstein)>  (627) 
0.278

>  <ref_pdb>  (627) 
Z3559a

>  <inspiration_score>  (627) 
None

$$$$
P125423
     RDKit          3D

 31 35  0  0  0  0  0  0  0  0999 V2000
   -3.5075    6.1401  -14.8611 C   0  0  0  0  0  0  0  0  0  0  0  0
   -4.3562    5.7494  -16.0156 C   0  0  0  0  0  0  0  0  0  0  0  0
   -3.8437    5.8211  -17.2551 N   0  0  0  0  0  0  0  0  0  0  0  0
   -4.8497    5.3907  -18.0435 N   0  0  0  0  0  0  0  0  0  0  0  0
   -4.7048    5.4093  -19.4765 C   0  0  0  0  0  0  0  0  0  0  0  0
   -5.9671    5.0247  -17.3543 C   0  0  0  0  0  0  0  0  0  0  0  0
   -7.0925    4.5306  -17.8870 N   0  0  0  0  0  0  0  0  0  0  0  0
   -8.1191    4.3407  -17.0251 C   0  0  0  0  0  0  0  0  0  0  0  0
   -9.4270    3.8346  -17.6351 C   0  0  0  0  0  0  0  0  0  0  0  0
   -9.7394    4.0638  -19.0944 C   0  0  0  0  0  0  0  0  0  0  0  0
   -9.3971    2.6856  -18.6182 C   0  0  0  0  0  0  0  0  0  0  0  0
   -7.9886    4.6546  -15.6582 C   0  0  0  0  0  0  0  0  0  0  0  0
   -9.3837    4.7172  -14.6540 Cl  0  0  0  0  0  0  0  0  0  0  0  0
   -6.7556    5.0712  -15.1224 C   0  0  0  0  0  0  0  0  0  0  0  0
   -6.6055    5.4620  -13.6984 C   0  0  0  0  0  0  0  0  0  0  0  0
   -6.0995    6.4917  -13.4730 O   0  0  0  0  0  0  0  0  0  0  0  0
   -7.2520    4.4280  -12.7389 N   0  0  0  0  0  0  0  0  0  0  0  0
   -7.4848    4.4894  -11.3695 C   0  0  0  0  0  0  0  0  0  0  0  0
   -7.0867    5.6305  -10.6517 C   0  0  0  0  0  0  0  0  0  0  0  0
   -7.3337    5.7450   -9.2885 C   0  0  0  0  0  0  0  0  0  0  0  0
   -7.9934    4.7064   -8.6703 C   0  0  0  0  0  0  0  0  0  0  0  0
   -8.4207    3.5891   -9.3811 C   0  0  0  0  0  0  0  0  0  0  0  0
   -8.1742    3.4468  -10.7348 C   0  0  0  0  0  0  0  0  0  0  0  0
   -9.1186    2.7047   -8.4325 C   0  0  0  0  0  0  0  0  0  0  0  0
   -9.6121    1.6359   -8.7298 O   0  0  0  0  0  0  0  0  0  0  0  0
   -9.0987    3.3508   -7.1888 N   0  0  0  0  0  0  0  0  0  0  0  0
   -9.3497    2.6629   -5.9282 C   0  0  0  0  0  0  0  0  0  0  0  0
   -9.1031    3.5510   -4.6983 C   0  0  0  0  0  0  0  0  0  0  0  0
  -10.7655    2.1143   -5.8439 C   0  0  0  0  0  0  0  0  0  0  0  0
   -8.3116    4.5592   -7.2346 C   0  0  0  0  0  0  0  0  0  0  0  0
   -5.7052    5.2920  -16.0226 C   0  0  0  0  0  0  0  0  0  0  0  0
  1  2  1  0
  2  3  2  0
  3  4  1  0
  4  5  1  0
  4  6  1  0
  6  7  2  0
  7  8  1  0
  8  9  1  0
  9 10  1  0
 10 11  1  0
  8 12  2  0
 12 13  1  0
 12 14  1  0
 14 15  1  0
 15 16  2  0
 15 17  1  0
 17 18  1  0
 18 19  2  0
 19 20  1  0
 20 21  2  0
 21 22  1  0
 22 23  2  0
 22 24  1  0
 24 25  2  0
 24 26  1  0
 26 27  1  0
 27 28  1  0
 27 29  1  0
 26 30  1  0
 14 31  2  0
 31  2  1  0
 31  6  1  0
 11  9  1  0
 23 18  1  0
 30 21  1  0
M  END
>  <name>  (628) 
P125423

>  <alias>  (628) 
None

>  <smina_score_min>  (628) 
-8.577

>  <exports>  (628) 
['/opt/xchem-fragalysis-2/maxwin/BulkDock/OUTPUTS/openbind_xx01zvns2b_c2_elabs_1LOUTNY.sdf', '/opt/xchem-fragalysis-2/maxwin/BulkDock/OUTPUTS/openbind_xx01zvns2b_c2_elabs_1LSYIIV.sdf']

>  <tags>  (628) 
syndirella_placed,openbind_xx01zvns2b_c2_elabs,openbind_xx01zvns2b_c2_elabs_scored_6.2plus,syndirella_product,openbind_xx01zvns2b_c2_elabs_scored,openbind_xx01zvns2b_c2_elabs_scored_top80percent,BulkDock Fragalysis export

>  <subsites>  (628) 
1 - Z4590/B/203/1

>  <smiles>  (628) 
Cc1nn(C)c2nc(C3CC3)c(Cl)c(C(=O)Nc3ccc4c(c3)C(=O)N(C(C)C)C4)c12

>  <HIPPO Pose ID>  (628) 
125423

>  <energy_score>  (628) 
-40.247351

>  <inchikey>  (628) 
DQCJPEDNAGAXHH-UHFFFAOYSA-N

>  <gnina_score_min>  (628) 
6.315

>  <gnina_score>  (628) 
6.463

>  <ref_mols>  (628) 
Z3559a

>  <HIPPO Compound ID>  (628) 
178785

>  <distance_score>  (628) 
0.753453

>  <rmsd(smina/fragmenstein)>  (628) 
0.513

>  <ref_pdb>  (628) 
Z3559a

>  <inspiration_score>  (628) 
None

$$$$
P125425
     RDKit          3D

 31 35  0  0  0  0  0  0  0  0999 V2000
   -4.4155    6.5993  -14.2220 C   0  0  0  0  0  0  0  0  0  0  0  0
   -4.9659    6.0288  -15.4775 C   0  0  0  0  0  0  0  0  0  0  0  0
   -4.2626    6.1370  -16.6203 N   0  0  0  0  0  0  0  0  0  0  0  0
   -5.0441    5.5242  -17.5328 N   0  0  0  0  0  0  0  0  0  0  0  0
   -4.7171    5.5472  -18.9433 C   0  0  0  0  0  0  0  0  0  0  0  0
   -5.3686    6.7355  -19.6334 C   0  0  0  0  0  0  0  0  0  0  0  0
   -5.4075    6.5608  -21.0470 O   0  0  0  0  0  0  0  0  0  0  0  0
   -6.2009    5.0276  -17.0099 C   0  0  0  0  0  0  0  0  0  0  0  0
   -7.1527    4.3906  -17.6976 N   0  0  0  0  0  0  0  0  0  0  0  0
   -8.2540    4.0539  -16.9935 C   0  0  0  0  0  0  0  0  0  0  0  0
   -9.3132    3.3218  -17.7747 C   0  0  0  0  0  0  0  0  0  0  0  0
  -10.6019    3.9629  -18.2288 C   0  0  0  0  0  0  0  0  0  0  0  0
   -9.5078    3.7367  -19.2150 C   0  0  0  0  0  0  0  0  0  0  0  0
   -8.4010    4.3542  -15.6362 C   0  0  0  0  0  0  0  0  0  0  0  0
   -7.3720    5.0241  -14.9552 C   0  0  0  0  0  0  0  0  0  0  0  0
   -7.5636    5.5377  -13.5813 C   0  0  0  0  0  0  0  0  0  0  0  0
   -7.4183    6.6858  -13.4199 O   0  0  0  0  0  0  0  0  0  0  0  0
   -7.9482    4.4242  -12.5771 N   0  0  0  0  0  0  0  0  0  0  0  0
   -8.1350    4.4752  -11.1922 C   0  0  0  0  0  0  0  0  0  0  0  0
   -7.9601    5.6808  -10.4936 C   0  0  0  0  0  0  0  0  0  0  0  0
   -8.1138    5.7437   -9.1031 C   0  0  0  0  0  0  0  0  0  0  0  0
   -8.4479    4.5890   -8.4144 C   0  0  0  0  0  0  0  0  0  0  0  0
   -8.6300    3.3935   -9.1087 C   0  0  0  0  0  0  0  0  0  0  0  0
   -8.4807    3.3153  -10.4927 C   0  0  0  0  0  0  0  0  0  0  0  0
   -8.9925    2.3076   -8.1490 C   0  0  0  0  0  0  0  0  0  0  0  0
   -8.8673    2.9045   -6.7920 N   0  0  0  0  0  0  0  0  0  0  0  0
   -9.9776    2.5035   -5.9445 C   0  0  0  0  0  0  0  0  0  0  0  0
   -8.5704    4.3557   -6.9233 C   0  0  0  0  0  0  0  0  0  0  0  0
   -9.5470    5.3061   -6.2016 C   0  0  0  0  0  0  0  0  0  0  0  0
   -7.1909    4.6370   -6.2921 C   0  0  0  0  0  0  0  0  0  0  0  0
   -6.2124    5.3673  -15.6726 C   0  0  0  0  0  0  0  0  0  0  0  0
  1  2  1  0
  2  3  2  0
  3  4  1  0
  4  5  1  0
  5  6  1  0
  6  7  1  0
  4  8  1  0
  8  9  2  0
  9 10  1  0
 10 11  1  0
 11 12  1  0
 12 13  1  0
 10 14  2  0
 14 15  1  0
 15 16  1  0
 16 17  2  0
 16 18  1  0
 18 19  1  0
 19 20  2  0
 20 21  1  0
 21 22  2  0
 22 23  1  0
 23 24  2  0
 23 25  1  0
 25 26  1  0
 26 27  1  0
 26 28  1  0
 28 29  1  0
 28 30  1  0
 15 31  2  0
 31  2  1  0
 31  8  1  0
 13 11  1  0
 24 19  1  0
 28 22  1  0
M  END
>  <name>  (629) 
P125425

>  <alias>  (629) 
None

>  <smina_score_min>  (629) 
-8.943

>  <exports>  (629) 
['/opt/xchem-fragalysis-2/maxwin/BulkDock/OUTPUTS/openbind_xx01zvns2b_c2_elabs_1LOUTNY.sdf', '/opt/xchem-fragalysis-2/maxwin/BulkDock/OUTPUTS/openbind_xx01zvns2b_c2_elabs_1LSYIIV.sdf']

>  <tags>  (629) 
syndirella_placed,openbind_xx01zvns2b_c2_elabs,openbind_xx01zvns2b_c2_elabs_scored_6.2plus,syndirella_product,openbind_xx01zvns2b_c2_elabs_scored,openbind_xx01zvns2b_c2_elabs_scored_top80percent,BulkDock Fragalysis export

>  <subsites>  (629) 
1 - Z4590/B/203/1

>  <smiles>  (629) 
Cc1nn(CCO)c2nc(C3CC3)cc(C(=O)Nc3ccc4c(c3)CN(C)C4(C)C)c12

>  <HIPPO Pose ID>  (629) 
125425

>  <energy_score>  (629) 
-41.452516

>  <inchikey>  (629) 
DAIGTEOGMOIDHS-UHFFFAOYSA-N

>  <gnina_score_min>  (629) 
6.346

>  <gnina_score>  (629) 
6.259

>  <ref_mols>  (629) 
Z3559a

>  <HIPPO Compound ID>  (629) 
178924

>  <distance_score>  (629) 
0.621839

>  <rmsd(smina/fragmenstein)>  (629) 
0.672

>  <ref_pdb>  (629) 
Z3559a

>  <inspiration_score>  (629) 
None

$$$$
P125426
     RDKit          3D

 31 35  0  0  0  0  0  0  0  0999 V2000
  -10.8325    2.8849   -5.4504 C   0  0  0  0  0  0  0  0  0  0  0  0
   -9.6000    2.2558   -6.0697 C   0  0  0  0  0  0  0  0  0  0  0  0
   -9.2070    2.9069   -7.2895 N   0  0  0  0  0  0  0  0  0  0  0  0
   -9.1106    2.1945   -8.5551 C   0  0  0  0  0  0  0  0  0  0  0  0
   -8.5688    3.2509   -9.4600 C   0  0  0  0  0  0  0  0  0  0  0  0
   -8.3698    3.2378  -10.8291 C   0  0  0  0  0  0  0  0  0  0  0  0
   -7.8849    4.4065  -11.4317 C   0  0  0  0  0  0  0  0  0  0  0  0
   -7.7025    4.4284  -12.8091 N   0  0  0  0  0  0  0  0  0  0  0  0
   -7.2400    5.5702  -13.7424 C   0  0  0  0  0  0  0  0  0  0  0  0
   -7.0139    6.6918  -13.5111 O   0  0  0  0  0  0  0  0  0  0  0  0
   -7.1351    5.1201  -15.1412 C   0  0  0  0  0  0  0  0  0  0  0  0
   -8.1868    4.4294  -15.7553 C   0  0  0  0  0  0  0  0  0  0  0  0
   -8.1011    4.1016  -17.1073 C   0  0  0  0  0  0  0  0  0  0  0  0
   -9.1514    3.2361  -17.7360 C   0  0  0  0  0  0  0  0  0  0  0  0
  -10.2955    3.8073  -18.5326 C   0  0  0  0  0  0  0  0  0  0  0  0
   -9.1881    3.0783  -19.2304 C   0  0  0  0  0  0  0  0  0  0  0  0
   -7.0644    4.4781  -17.8826 N   0  0  0  0  0  0  0  0  0  0  0  0
   -6.0879    5.1427  -17.2558 C   0  0  0  0  0  0  0  0  0  0  0  0
   -6.0240    5.4772  -15.9180 C   0  0  0  0  0  0  0  0  0  0  0  0
   -4.7691    6.1330  -15.7822 C   0  0  0  0  0  0  0  0  0  0  0  0
   -4.1459    6.6900  -14.5549 C   0  0  0  0  0  0  0  0  0  0  0  0
   -4.1239    6.2382  -16.9574 N   0  0  0  0  0  0  0  0  0  0  0  0
   -4.9633    5.6480  -17.8384 N   0  0  0  0  0  0  0  0  0  0  0  0
   -4.6988    5.6387  -19.2644 C   0  0  0  0  0  0  0  0  0  0  0  0
   -3.2424    5.8715  -19.6388 C   0  0  0  0  0  0  0  0  0  0  0  0
   -2.4167    4.8174  -19.1567 O   0  0  0  0  0  0  0  0  0  0  0  0
   -7.5952    5.5511  -10.6636 C   0  0  0  0  0  0  0  0  0  0  0  0
   -7.7832    5.5527   -9.2846 C   0  0  0  0  0  0  0  0  0  0  0  0
   -8.2692    4.3949   -8.7202 C   0  0  0  0  0  0  0  0  0  0  0  0
   -8.6185    4.1524   -7.3227 C   0  0  0  0  0  0  0  0  0  0  0  0
   -8.4250    4.9361   -6.4116 O   0  0  0  0  0  0  0  0  0  0  0  0
  1  2  1  0
  2  3  1  0
  3  4  1  0
  4  5  1  0
  5  6  2  0
  6  7  1  0
  7  8  1  0
  8  9  1  0
  9 10  2  0
  9 11  1  0
 11 12  2  0
 12 13  1  0
 13 14  1  0
 14 15  1  0
 15 16  1  0
 13 17  2  0
 17 18  1  0
 18 19  2  0
 19 20  1  0
 20 21  1  0
 20 22  2  0
 22 23  1  0
 23 24  1  0
 24 25  1  0
 25 26  1  0
  7 27  2  0
 27 28  1  0
 28 29  2  0
 29 30  1  0
 30 31  2  0
 30  3  1  0
 29  5  1  0
 19 11  1  0
 16 14  1  0
 23 18  1  0
M  END
>  <name>  (630) 
P125426

>  <alias>  (630) 
None

>  <smina_score_min>  (630) 
-9.042

>  <exports>  (630) 
['/opt/xchem-fragalysis-2/maxwin/BulkDock/OUTPUTS/openbind_xx01zvns2b_c2_elabs_1LOUTNY.sdf', '/opt/xchem-fragalysis-2/maxwin/BulkDock/OUTPUTS/openbind_xx01zvns2b_c2_elabs_1LSYIIV.sdf']

>  <tags>  (630) 
syndirella_placed,openbind_xx01zvns2b_c2_elabs,openbind_xx01zvns2b_c2_elabs_scored_6.2plus,syndirella_product,openbind_xx01zvns2b_c2_elabs_scored,openbind_xx01zvns2b_c2_elabs_scored_top80percent,BulkDock Fragalysis export

>  <subsites>  (630) 
1 - Z4590/B/203/1

>  <smiles>  (630) 
CCN1Cc2cc(NC(=O)c3cc(C4CC4)nc4c3c(C)nn4CCO)ccc2C1=O

>  <HIPPO Pose ID>  (630) 
125426

>  <energy_score>  (630) 
-40.201743

>  <inchikey>  (630) 
DUYNFWTULQICMK-UHFFFAOYSA-N

>  <gnina_score_min>  (630) 
6.389

>  <gnina_score>  (630) 
6.197

>  <ref_mols>  (630) 
Z3559a

>  <HIPPO Compound ID>  (630) 
178951

>  <distance_score>  (630) 
0.57047

>  <rmsd(smina/fragmenstein)>  (630) 
0.85

>  <ref_pdb>  (630) 
Z3559a

>  <inspiration_score>  (630) 
None

$$$$
P125427
     RDKit          3D

 31 35  0  0  0  0  0  0  0  0999 V2000
   -4.4496    7.9567  -19.7183 C   0  0  0  0  0  0  0  0  0  0  0  0
   -5.2378    6.7083  -20.0849 C   0  0  0  0  0  0  0  0  0  0  0  0
   -4.7408    5.4446  -19.3860 C   0  0  0  0  0  0  0  0  0  0  0  0
   -5.0069    5.4346  -17.9632 N   0  0  0  0  0  0  0  0  0  0  0  0
   -4.0878    5.9184  -17.0939 N   0  0  0  0  0  0  0  0  0  0  0  0
   -4.7099    5.8282  -15.9130 C   0  0  0  0  0  0  0  0  0  0  0  0
   -6.0037    5.2734  -16.0165 C   0  0  0  0  0  0  0  0  0  0  0  0
   -7.0860    4.9769  -15.1817 C   0  0  0  0  0  0  0  0  0  0  0  0
   -7.0242    5.4009  -13.7721 C   0  0  0  0  0  0  0  0  0  0  0  0
   -6.4830    6.4119  -13.5495 O   0  0  0  0  0  0  0  0  0  0  0  0
   -7.6802    4.3827  -12.8113 N   0  0  0  0  0  0  0  0  0  0  0  0
   -7.8832    4.4394  -11.4384 C   0  0  0  0  0  0  0  0  0  0  0  0
   -7.4425    5.5833  -10.7414 C   0  0  0  0  0  0  0  0  0  0  0  0
   -7.5704    5.6874   -9.3634 C   0  0  0  0  0  0  0  0  0  0  0  0
   -8.1586    4.6339   -8.7061 C   0  0  0  0  0  0  0  0  0  0  0  0
   -8.6244    3.5145   -9.3924 C   0  0  0  0  0  0  0  0  0  0  0  0
   -8.4927    3.3804  -10.7628 C   0  0  0  0  0  0  0  0  0  0  0  0
   -9.2574    2.6285   -8.4040 C   0  0  0  0  0  0  0  0  0  0  0  0
   -9.7745    1.5642   -8.6763 O   0  0  0  0  0  0  0  0  0  0  0  0
   -9.1740    3.2815   -7.1693 N   0  0  0  0  0  0  0  0  0  0  0  0
   -9.4035    2.6187   -5.8936 C   0  0  0  0  0  0  0  0  0  0  0  0
   -9.0902    3.5145   -4.6847 C   0  0  0  0  0  0  0  0  0  0  0  0
  -10.8325    2.1157   -5.7603 C   0  0  0  0  0  0  0  0  0  0  0  0
   -8.3745    4.4787   -7.2532 C   0  0  0  0  0  0  0  0  0  0  0  0
   -8.2374    4.4357  -15.7591 C   0  0  0  0  0  0  0  0  0  0  0  0
   -8.2843    4.2181  -17.1398 C   0  0  0  0  0  0  0  0  0  0  0  0
   -9.5724    3.7447  -17.7709 C   0  0  0  0  0  0  0  0  0  0  0  0
   -9.8083    3.9026  -19.2504 C   0  0  0  0  0  0  0  0  0  0  0  0
   -9.5578    2.5401  -18.6758 C   0  0  0  0  0  0  0  0  0  0  0  0
   -7.2385    4.4872  -17.9596 N   0  0  0  0  0  0  0  0  0  0  0  0
   -6.1592    5.0099  -17.3610 C   0  0  0  0  0  0  0  0  0  0  0  0
  1  2  1  0
  2  3  1  0
  3  4  1  0
  4  5  1  0
  5  6  2  0
  6  7  1  0
  7  8  2  0
  8  9  1  0
  9 10  2  0
  9 11  1  0
 11 12  1  0
 12 13  2  0
 13 14  1  0
 14 15  2  0
 15 16  1  0
 16 17  2  0
 16 18  1  0
 18 19  2  0
 18 20  1  0
 20 21  1  0
 21 22  1  0
 21 23  1  0
 20 24  1  0
  8 25  1  0
 25 26  2  0
 26 27  1  0
 27 28  1  0
 28 29  1  0
 26 30  1  0
 30 31  2  0
 31  4  1  0
 31  7  1  0
 17 12  1  0
 29 27  1  0
 24 15  1  0
M  END
>  <name>  (631) 
P125427

>  <alias>  (631) 
None

>  <smina_score_min>  (631) 
-8.677

>  <exports>  (631) 
['/opt/xchem-fragalysis-2/maxwin/BulkDock/OUTPUTS/openbind_xx01zvns2b_c2_elabs_1LOUTNY.sdf', '/opt/xchem-fragalysis-2/maxwin/BulkDock/OUTPUTS/openbind_xx01zvns2b_c2_elabs_1LSYIIV.sdf']

>  <tags>  (631) 
syndirella_placed,openbind_xx01zvns2b_c2_elabs,openbind_xx01zvns2b_c2_elabs_scored_6.2plus,syndirella_product,openbind_xx01zvns2b_c2_elabs_scored,openbind_xx01zvns2b_c2_elabs_scored_top80percent,BulkDock Fragalysis export

>  <subsites>  (631) 
1 - Z4590/B/203/1

>  <smiles>  (631) 
CCCn1ncc2c(C(=O)Nc3ccc4c(c3)C(=O)N(C(C)C)C4)cc(C3CC3)nc21

>  <HIPPO Pose ID>  (631) 
125427

>  <energy_score>  (631) 
-53.296478

>  <inchikey>  (631) 
QVSQSHQOELGQMM-UHFFFAOYSA-N

>  <gnina_score_min>  (631) 
6.21

>  <gnina_score>  (631) 
6.334

>  <ref_mols>  (631) 
Z3559a

>  <HIPPO Compound ID>  (631) 
178870

>  <distance_score>  (631) 
0.573462

>  <rmsd(smina/fragmenstein)>  (631) 
0.52

>  <ref_pdb>  (631) 
Z3559a

>  <inspiration_score>  (631) 
None

$$$$
P125428
     RDKit          3D

 31 35  0  0  0  0  0  0  0  0999 V2000
   -3.1218    5.2875  -21.1611 C   0  0  0  0  0  0  0  0  0  0  0  0
   -3.3003    5.4582  -19.6608 C   0  0  0  0  0  0  0  0  0  0  0  0
   -4.7805    5.4754  -19.2745 C   0  0  0  0  0  0  0  0  0  0  0  0
   -5.0299    5.4636  -17.8449 N   0  0  0  0  0  0  0  0  0  0  0  0
   -4.1535    6.0179  -16.9718 N   0  0  0  0  0  0  0  0  0  0  0  0
   -4.7807    5.9015  -15.7943 C   0  0  0  0  0  0  0  0  0  0  0  0
   -6.0495    5.2918  -15.9027 C   0  0  0  0  0  0  0  0  0  0  0  0
   -7.1350    4.9694  -15.0771 C   0  0  0  0  0  0  0  0  0  0  0  0
   -7.1318    5.4406  -13.6781 C   0  0  0  0  0  0  0  0  0  0  0  0
   -6.6851    6.5057  -13.4945 O   0  0  0  0  0  0  0  0  0  0  0  0
   -7.7811    4.4396  -12.6890 N   0  0  0  0  0  0  0  0  0  0  0  0
   -7.9243    4.4999  -11.3022 C   0  0  0  0  0  0  0  0  0  0  0  0
   -7.5842    5.6998  -10.6522 C   0  0  0  0  0  0  0  0  0  0  0  0
   -7.7044    5.8347   -9.2766 C   0  0  0  0  0  0  0  0  0  0  0  0
   -8.1664    4.7501   -8.5660 C   0  0  0  0  0  0  0  0  0  0  0  0
   -8.5172    3.5485   -9.1863 C   0  0  0  0  0  0  0  0  0  0  0  0
   -8.4042    3.4060  -10.5665 C   0  0  0  0  0  0  0  0  0  0  0  0
   -9.0388    2.5988   -8.1377 C   0  0  0  0  0  0  0  0  0  0  0  0
   -8.7600    3.2899   -6.8598 N   0  0  0  0  0  0  0  0  0  0  0  0
   -9.5815    3.0663   -5.6781 C   0  0  0  0  0  0  0  0  0  0  0  0
  -10.8846    2.2922   -5.8084 C   0  0  0  0  0  0  0  0  0  0  0  0
  -11.5201    2.2366   -4.6109 F   0  0  0  0  0  0  0  0  0  0  0  0
  -10.6817    1.0291   -6.2319 F   0  0  0  0  0  0  0  0  0  0  0  0
   -8.4158    4.6800   -7.1042 C   0  0  0  0  0  0  0  0  0  0  0  0
   -8.2673    4.4062  -15.6730 C   0  0  0  0  0  0  0  0  0  0  0  0
   -8.2958    4.1978  -17.0574 C   0  0  0  0  0  0  0  0  0  0  0  0
   -9.5733    3.7293  -17.7142 C   0  0  0  0  0  0  0  0  0  0  0  0
   -9.8008    3.9278  -19.1913 C   0  0  0  0  0  0  0  0  0  0  0  0
   -9.5403    2.5521  -18.6548 C   0  0  0  0  0  0  0  0  0  0  0  0
   -7.2430    4.4821  -17.8623 N   0  0  0  0  0  0  0  0  0  0  0  0
   -6.1807    5.0204  -17.2490 C   0  0  0  0  0  0  0  0  0  0  0  0
  1  2  1  0
  2  3  1  0
  3  4  1  0
  4  5  1  0
  5  6  2  0
  6  7  1  0
  7  8  2  0
  8  9  1  0
  9 10  2  0
  9 11  1  0
 11 12  1  0
 12 13  2  0
 13 14  1  0
 14 15  2  0
 15 16  1  0
 16 17  2  0
 16 18  1  0
 18 19  1  0
 19 20  1  0
 20 21  1  0
 21 22  1  0
 21 23  1  0
 19 24  1  0
  8 25  1  0
 25 26  2  0
 26 27  1  0
 27 28  1  0
 28 29  1  0
 26 30  1  0
 30 31  2  0
 31  4  1  0
 31  7  1  0
 17 12  1  0
 29 27  1  0
 24 15  1  0
M  END
>  <name>  (632) 
P125428

>  <alias>  (632) 
None

>  <smina_score_min>  (632) 
-8.57

>  <exports>  (632) 
['/opt/xchem-fragalysis-2/maxwin/BulkDock/OUTPUTS/openbind_xx01zvns2b_c2_elabs_1LOUTNY.sdf', '/opt/xchem-fragalysis-2/maxwin/BulkDock/OUTPUTS/openbind_xx01zvns2b_c2_elabs_1LSYIIV.sdf']

>  <tags>  (632) 
syndirella_placed,openbind_xx01zvns2b_c2_elabs,openbind_xx01zvns2b_c2_elabs_scored_6.2plus,syndirella_product,openbind_xx01zvns2b_c2_elabs_scored,openbind_xx01zvns2b_c2_elabs_scored_top80percent,BulkDock Fragalysis export

>  <subsites>  (632) 
1 - Z4590/B/203/1

>  <smiles>  (632) 
CCCn1ncc2c(C(=O)Nc3ccc4c(c3)CN(CC(F)F)C4)cc(C3CC3)nc21

>  <HIPPO Pose ID>  (632) 
125428

>  <energy_score>  (632) 
-25.866989

>  <inchikey>  (632) 
JESGDABKCFPBEZ-UHFFFAOYSA-N

>  <gnina_score_min>  (632) 
6.214

>  <gnina_score>  (632) 
6.279

>  <ref_mols>  (632) 
Z3559a

>  <HIPPO Compound ID>  (632) 
178879

>  <distance_score>  (632) 
0.578716

>  <rmsd(smina/fragmenstein)>  (632) 
0.243

>  <ref_pdb>  (632) 
Z3559a

>  <inspiration_score>  (632) 
None

$$$$
P125431
     RDKit          3D

 31 35  0  0  0  0  0  0  0  0999 V2000
   -9.3530    5.4434   -3.0848 C   0  0  0  0  0  0  0  0  0  0  0  0
   -9.8622    4.6229   -4.2650 C   0  0  0  0  0  0  0  0  0  0  0  0
   -8.8629    3.5221   -4.5988 C   0  0  0  0  0  0  0  0  0  0  0  0
   -9.1865    2.6783   -5.8527 C   0  0  0  0  0  0  0  0  0  0  0  0
   -9.2728    3.4267   -7.0994 N   0  0  0  0  0  0  0  0  0  0  0  0
   -8.2435    4.4581   -7.2391 C   0  0  0  0  0  0  0  0  0  0  0  0
   -8.1092    4.6281   -8.7045 C   0  0  0  0  0  0  0  0  0  0  0  0
   -7.5753    5.7019   -9.3743 C   0  0  0  0  0  0  0  0  0  0  0  0
   -7.5289    5.6242  -10.7548 C   0  0  0  0  0  0  0  0  0  0  0  0
   -7.9792    4.4787  -11.4384 C   0  0  0  0  0  0  0  0  0  0  0  0
   -7.8478    4.4553  -12.8230 N   0  0  0  0  0  0  0  0  0  0  0  0
   -7.2087    5.4790  -13.7878 C   0  0  0  0  0  0  0  0  0  0  0  0
   -6.7609    6.5378  -13.5804 O   0  0  0  0  0  0  0  0  0  0  0  0
   -7.1454    5.0063  -15.1792 C   0  0  0  0  0  0  0  0  0  0  0  0
   -8.2353    4.4447  -15.8334 C   0  0  0  0  0  0  0  0  0  0  0  0
   -8.1743    4.2412  -17.2157 C   0  0  0  0  0  0  0  0  0  0  0  0
   -9.4377    3.7825  -17.9138 C   0  0  0  0  0  0  0  0  0  0  0  0
   -9.5419    3.8128  -19.4137 C   0  0  0  0  0  0  0  0  0  0  0  0
   -9.4530    2.4987  -18.6971 C   0  0  0  0  0  0  0  0  0  0  0  0
   -7.0704    4.5333  -17.9646 N   0  0  0  0  0  0  0  0  0  0  0  0
   -6.0358    5.0643  -17.2871 C   0  0  0  0  0  0  0  0  0  0  0  0
   -6.0030    5.3106  -15.9254 C   0  0  0  0  0  0  0  0  0  0  0  0
   -4.7374    5.8757  -15.6839 C   0  0  0  0  0  0  0  0  0  0  0  0
   -4.0032    5.9768  -16.7905 N   0  0  0  0  0  0  0  0  0  0  0  0
   -4.8310    5.5192  -17.7687 N   0  0  0  0  0  0  0  0  0  0  0  0
   -4.3048    5.5851  -19.1146 C   0  0  0  0  0  0  0  0  0  0  0  0
   -5.2631    5.7184  -20.2896 C   0  0  0  0  0  0  0  0  0  0  0  0
   -5.4435    4.4049  -21.0349 C   0  0  0  0  0  0  0  0  0  0  0  0
   -8.5227    3.3933  -10.7399 C   0  0  0  0  0  0  0  0  0  0  0  0
   -8.6026    3.4978   -9.3594 C   0  0  0  0  0  0  0  0  0  0  0  0
   -9.1668    2.5669   -8.3197 C   0  0  0  0  0  0  0  0  0  0  0  0
  1  2  1  0
  2  3  1  0
  3  4  1  0
  4  5  1  0
  5  6  1  0
  6  7  1  0
  7  8  2  0
  8  9  1  0
  9 10  2  0
 10 11  1  0
 11 12  1  0
 12 13  2  0
 12 14  1  0
 14 15  2  0
 15 16  1  0
 16 17  1  0
 17 18  1  0
 18 19  1  0
 16 20  2  0
 20 21  1  0
 21 22  2  0
 22 23  1  0
 23 24  2  0
 24 25  1  0
 25 26  1  0
 26 27  1  0
 27 28  1  0
 10 29  1  0
 29 30  2  0
 30 31  1  0
 31  5  1  0
 30  7  1  0
 22 14  1  0
 19 17  1  0
 25 21  1  0
M  END
>  <name>  (633) 
P125431

>  <alias>  (633) 
None

>  <smina_score_min>  (633) 
-8.024

>  <exports>  (633) 
['/opt/xchem-fragalysis-2/maxwin/BulkDock/OUTPUTS/openbind_xx01zvns2b_c2_elabs_1LOUTNY.sdf', '/opt/xchem-fragalysis-2/maxwin/BulkDock/OUTPUTS/openbind_xx01zvns2b_c2_elabs_1LSYIIV.sdf']

>  <tags>  (633) 
syndirella_placed,openbind_xx01zvns2b_c2_elabs,openbind_xx01zvns2b_c2_elabs_scored_6.2plus,syndirella_product,openbind_xx01zvns2b_c2_elabs_scored,openbind_xx01zvns2b_c2_elabs_scored_top80percent,BulkDock Fragalysis export

>  <subsites>  (633) 
1 - Z4590/B/203/1

>  <smiles>  (633) 
CCCCN1Cc2ccc(NC(=O)c3cc(C4CC4)nc4c3cnn4CCC)cc2C1

>  <HIPPO Pose ID>  (633) 
125431

>  <energy_score>  (633) 
-55.465523

>  <inchikey>  (633) 
UGOOCGKQFRPORB-UHFFFAOYSA-N

>  <gnina_score_min>  (633) 
6.341

>  <gnina_score>  (633) 
6.293

>  <ref_mols>  (633) 
Z3559a

>  <HIPPO Compound ID>  (633) 
178880

>  <distance_score>  (633) 
0.6166

>  <rmsd(smina/fragmenstein)>  (633) 
0.967

>  <ref_pdb>  (633) 
Z3559a

>  <inspiration_score>  (633) 
None

$$$$
P125434
     RDKit          3D

 31 35  0  0  0  0  0  0  0  0999 V2000
   -2.3645    5.3090  -20.6335 C   0  0  0  0  0  0  0  0  0  0  0  0
   -2.9067    5.3347  -19.2121 C   0  0  0  0  0  0  0  0  0  0  0  0
   -4.3473    5.8785  -19.0809 C   0  0  1  0  0  0  0  0  0  0  0  0
   -5.3114    5.3186  -20.1214 C   0  0  0  0  0  0  0  0  0  0  0  0
   -4.8127    5.7831  -17.6938 N   0  0  0  0  0  0  0  0  0  0  0  0
   -4.0792    6.4272  -16.7454 N   0  0  0  0  0  0  0  0  0  0  0  0
   -4.7900    6.2693  -15.6287 C   0  0  0  0  0  0  0  0  0  0  0  0
   -5.9779    5.5479  -15.8389 C   0  0  0  0  0  0  0  0  0  0  0  0
   -7.0885    5.1466  -15.0909 C   0  0  0  0  0  0  0  0  0  0  0  0
   -7.1835    5.5765  -13.6835 C   0  0  0  0  0  0  0  0  0  0  0  0
   -6.8540    6.6661  -13.4250 O   0  0  0  0  0  0  0  0  0  0  0  0
   -7.6501    4.4271  -12.7640 N   0  0  0  0  0  0  0  0  0  0  0  0
   -7.8907    4.4071  -11.3960 C   0  0  0  0  0  0  0  0  0  0  0  0
   -7.6408    5.5618  -10.6275 C   0  0  0  0  0  0  0  0  0  0  0  0
   -7.8447    5.5640   -9.2522 C   0  0  0  0  0  0  0  0  0  0  0  0
   -8.3108    4.3968   -8.6923 C   0  0  0  0  0  0  0  0  0  0  0  0
   -8.5818    3.2455   -9.4328 C   0  0  0  0  0  0  0  0  0  0  0  0
   -8.3636    3.2313  -10.7991 C   0  0  0  0  0  0  0  0  0  0  0  0
   -9.1147    2.1830   -8.5292 C   0  0  0  0  0  0  0  0  0  0  0  0
   -9.2299    2.8969   -7.2662 N   0  0  0  0  0  0  0  0  0  0  0  0
   -9.6272    2.2445   -6.0483 C   0  0  0  0  0  0  0  0  0  0  0  0
  -10.8641    2.8703   -5.4352 C   0  0  0  0  0  0  0  0  0  0  0  0
   -8.6628    4.1513   -7.2972 C   0  0  0  0  0  0  0  0  0  0  0  0
   -8.4856    4.9411   -6.3881 O   0  0  0  0  0  0  0  0  0  0  0  0
   -8.0984    4.4303  -15.7332 C   0  0  0  0  0  0  0  0  0  0  0  0
   -7.9623    4.1163  -17.0870 C   0  0  0  0  0  0  0  0  0  0  0  0
   -8.9985    3.2393  -17.7410 C   0  0  0  0  0  0  0  0  0  0  0  0
  -10.0854    3.8073  -18.6166 C   0  0  0  0  0  0  0  0  0  0  0  0
   -8.9741    3.0078  -19.2272 C   0  0  0  0  0  0  0  0  0  0  0  0
   -6.9019    4.5155  -17.8297 N   0  0  0  0  0  0  0  0  0  0  0  0
   -5.9595    5.2192  -17.1816 C   0  0  0  0  0  0  0  0  0  0  0  0
  1  2  1  0
  2  3  1  0
  3  4  1  6
  3  5  1  0
  5  6  1  0
  6  7  2  0
  7  8  1  0
  8  9  2  0
  9 10  1  0
 10 11  2  0
 10 12  1  0
 12 13  1  0
 13 14  2  0
 14 15  1  0
 15 16  2  0
 16 17  1  0
 17 18  2  0
 17 19  1  0
 19 20  1  0
 20 21  1  0
 21 22  1  0
 20 23  1  0
 23 24  2  0
  9 25  1  0
 25 26  2  0
 26 27  1  0
 27 28  1  0
 28 29  1  0
 26 30  1  0
 30 31  2  0
 31  5  1  0
 31  8  1  0
 18 13  1  0
 29 27  1  0
 23 16  1  0
M  END
>  <name>  (634) 
P125434

>  <alias>  (634) 
None

>  <smina_score_min>  (634) 
-9.059

>  <exports>  (634) 
['/opt/xchem-fragalysis-2/maxwin/BulkDock/OUTPUTS/openbind_xx01zvns2b_c2_elabs_1LOUTNY.sdf', '/opt/xchem-fragalysis-2/maxwin/BulkDock/OUTPUTS/openbind_xx01zvns2b_c2_elabs_1LSYIIV.sdf']

>  <tags>  (634) 
syndirella_placed,openbind_xx01zvns2b_c2_elabs,openbind_xx01zvns2b_c2_elabs_scored_6.2plus,syndirella_product,openbind_xx01zvns2b_c2_elabs_scored,openbind_xx01zvns2b_c2_elabs_scored_top80percent,BulkDock Fragalysis export

>  <subsites>  (634) 
1 - Z4590/B/203/1

>  <smiles>  (634) 
CC[C@@H](C)n1ncc2c(C(=O)Nc3ccc4c(c3)CN(CC)C4=O)cc(C3CC3)nc21

>  <HIPPO Pose ID>  (634) 
125434

>  <energy_score>  (634) 
-55.246128

>  <inchikey>  (634) 
ZQHKNRSXPZCUJI-CQSZACIVSA-N

>  <gnina_score_min>  (634) 
6.521

>  <gnina_score>  (634) 
6.331

>  <ref_mols>  (634) 
Z3559a

>  <HIPPO Compound ID>  (634) 
178823

>  <distance_score>  (634) 
0.604514

>  <rmsd(smina/fragmenstein)>  (634) 
0.636

>  <ref_pdb>  (634) 
Z3559a

>  <inspiration_score>  (634) 
None

$$$$
P125440
     RDKit          3D

 32 37  0  0  0  0  0  0  0  0999 V2000
   -7.9450    4.2153   -6.0162 O   0  0  0  0  0  0  0  0  0  0  0  0
   -8.3751    3.5914   -6.9695 C   0  0  0  0  0  0  0  0  0  0  0  0
   -9.0595    2.4171   -6.9782 N   0  0  0  0  0  0  0  0  0  0  0  0
   -9.3309    1.9904   -8.2440 C   0  0  0  0  0  0  0  0  0  0  0  0
   -9.9768    1.0195   -8.5768 O   0  0  0  0  0  0  0  0  0  0  0  0
   -8.7514    2.9769   -9.1585 C   0  0  0  0  0  0  0  0  0  0  0  0
   -8.6972    3.0177  -10.5446 C   0  0  0  0  0  0  0  0  0  0  0  0
   -8.0815    4.1295  -11.1323 C   0  0  0  0  0  0  0  0  0  0  0  0
   -7.9534    4.2058  -12.5221 N   0  0  0  0  0  0  0  0  0  0  0  0
   -7.3027    5.2942  -13.4153 C   0  0  0  0  0  0  0  0  0  0  0  0
   -6.8421    6.3311  -13.1321 O   0  0  0  0  0  0  0  0  0  0  0  0
   -7.2741    4.9317  -14.8548 C   0  0  0  0  0  0  0  0  0  0  0  0
   -8.3760    4.3987  -15.5334 C   0  0  0  0  0  0  0  0  0  0  0  0
   -8.3344    4.2273  -16.9251 C   0  0  0  0  0  0  0  0  0  0  0  0
   -9.5756    3.7708  -17.6637 C   0  0  0  0  0  0  0  0  0  0  0  0
   -9.4969    2.5985  -18.6097 C   0  0  0  0  0  0  0  0  0  0  0  0
   -9.7105    3.9785  -19.1526 C   0  0  0  0  0  0  0  0  0  0  0  0
   -7.2400    4.5284  -17.6658 N   0  0  0  0  0  0  0  0  0  0  0  0
   -6.2109    5.0478  -16.9811 C   0  0  0  0  0  0  0  0  0  0  0  0
   -6.1508    5.2804  -15.6204 C   0  0  0  0  0  0  0  0  0  0  0  0
   -4.8837    5.8736  -15.4291 C   0  0  0  0  0  0  0  0  0  0  0  0
   -4.1962    6.0208  -16.5678 N   0  0  0  0  0  0  0  0  0  0  0  0
   -5.0264    5.5017  -17.5031 N   0  0  0  0  0  0  0  0  0  0  0  0
   -4.6867    5.5484  -18.9199 C   0  0  0  0  0  0  0  0  0  0  0  0
   -3.1821    5.4324  -19.2027 C   0  0  0  0  0  0  0  0  0  0  0  0
   -2.8996    5.3043  -20.7032 C   0  0  0  0  0  0  0  0  0  0  0  0
   -3.9632    5.9658  -21.5822 C   0  0  0  0  0  0  0  0  0  0  0  0
   -4.5835    7.1783  -20.9007 C   0  0  0  0  0  0  0  0  0  0  0  0
   -5.2654    6.8132  -19.5789 C   0  0  0  0  0  0  0  0  0  0  0  0
   -7.5631    5.1634  -10.3203 C   0  0  0  0  0  0  0  0  0  0  0  0
   -7.6193    5.0941   -8.9235 C   0  0  0  0  0  0  0  0  0  0  0  0
   -8.2099    3.9784   -8.3722 C   0  0  0  0  0  0  0  0  0  0  0  0
  1  2  2  0
  2  3  1  0
  3  4  1  0
  4  5  2  0
  4  6  1  0
  6  7  2  0
  7  8  1  0
  8  9  1  0
  9 10  1  0
 10 11  2  0
 10 12  1  0
 12 13  2  0
 13 14  1  0
 14 15  1  0
 15 16  1  0
 16 17  1  0
 14 18  2  0
 18 19  1  0
 19 20  2  0
 20 21  1  0
 21 22  2  0
 22 23  1  0
 23 24  1  0
 24 25  1  0
 25 26  1  0
 26 27  1  0
 27 28  1  0
 28 29  1  0
  8 30  2  0
 30 31  1  0
 31 32  2  0
 32  2  1  0
 32  6  1  0
 20 12  1  0
 29 24  1  0
 17 15  1  0
 23 19  1  0
M  END
>  <name>  (635) 
P125440

>  <alias>  (635) 
None

>  <smina_score_min>  (635) 
-9.856

>  <exports>  (635) 
['/opt/xchem-fragalysis-2/maxwin/BulkDock/OUTPUTS/openbind_xx01zvns2b_c2_elabs_1LOUTNY.sdf', '/opt/xchem-fragalysis-2/maxwin/BulkDock/OUTPUTS/openbind_xx01zvns2b_c2_elabs_1LSYIIV.sdf']

>  <tags>  (635) 
syndirella_placed,openbind_xx01zvns2b_c2_elabs,openbind_xx01zvns2b_c2_elabs_scored_6.2plus,syndirella_product,openbind_xx01zvns2b_c2_elabs_scored,openbind_xx01zvns2b_c2_elabs_scored_top80percent,BulkDock Fragalysis export

>  <subsites>  (635) 
1 - Z4590/B/203/1

>  <smiles>  (635) 
O=C1NC(=O)c2cc(NC(=O)c3cc(C4CC4)nc4c3cnn4C3CCCCC3)ccc21

>  <HIPPO Pose ID>  (635) 
125440

>  <energy_score>  (635) 
-55.372221

>  <inchikey>  (635) 
HDMXHIOMQFSCQO-UHFFFAOYSA-N

>  <gnina_score_min>  (635) 
6.35

>  <gnina_score>  (635) 
6.508

>  <ref_mols>  (635) 
Z3559a

>  <HIPPO Compound ID>  (635) 
179169

>  <distance_score>  (635) 
0.350238

>  <rmsd(smina/fragmenstein)>  (635) 
0.59

>  <ref_pdb>  (635) 
Z3559a

>  <inspiration_score>  (635) 
None

$$$$
P125441
     RDKit          3D

 32 37  0  0  0  0  0  0  0  0999 V2000
   -9.9464    1.0706   -8.8150 O   0  0  0  0  0  0  0  0  0  0  0  0
   -9.4001    2.0837   -8.4379 C   0  0  0  0  0  0  0  0  0  0  0  0
   -9.3124    2.5296   -7.1365 N   0  0  0  0  0  0  0  0  0  0  0  0
   -8.6410    3.7930   -7.0262 C   0  0  0  0  0  0  0  0  0  0  0  0
   -8.3459    4.1301   -8.4473 C   0  0  0  0  0  0  0  0  0  0  0  0
   -7.7643    5.2577   -8.9837 C   0  0  0  0  0  0  0  0  0  0  0  0
   -7.5825    5.3113  -10.3698 C   0  0  0  0  0  0  0  0  0  0  0  0
   -7.0329    6.4345  -10.8457 F   0  0  0  0  0  0  0  0  0  0  0  0
   -7.9586    4.2485  -11.2237 C   0  0  0  0  0  0  0  0  0  0  0  0
   -7.7262    4.2603  -12.6100 N   0  0  0  0  0  0  0  0  0  0  0  0
   -7.0246    5.3169  -13.5058 C   0  0  0  0  0  0  0  0  0  0  0  0
   -6.4646    6.3024  -13.2181 O   0  0  0  0  0  0  0  0  0  0  0  0
   -7.0582    4.9855  -14.9607 C   0  0  0  0  0  0  0  0  0  0  0  0
   -8.1192    4.3243  -15.5954 C   0  0  0  0  0  0  0  0  0  0  0  0
   -8.1085    4.1435  -16.9868 C   0  0  0  0  0  0  0  0  0  0  0  0
   -9.1426    3.2683  -17.6435 C   0  0  0  0  0  0  0  0  0  0  0  0
  -10.2706    3.8308  -18.4709 C   0  0  0  0  0  0  0  0  0  0  0  0
   -9.1481    3.1002  -19.1414 C   0  0  0  0  0  0  0  0  0  0  0  0
   -7.1580    4.6749  -17.7831 N   0  0  0  0  0  0  0  0  0  0  0  0
   -6.1595    5.2954  -17.1482 C   0  0  0  0  0  0  0  0  0  0  0  0
   -6.0192    5.4569  -15.7840 C   0  0  0  0  0  0  0  0  0  0  0  0
   -4.7906    6.1392  -15.6534 C   0  0  0  0  0  0  0  0  0  0  0  0
   -4.2227    6.4333  -16.8294 N   0  0  0  0  0  0  0  0  0  0  0  0
   -5.1092    5.9555  -17.7378 N   0  0  0  0  0  0  0  0  0  0  0  0
   -5.0562    6.3537  -19.1469 C   0  0  0  0  0  0  0  0  0  0  0  0
   -4.8332    5.1746  -20.1076 C   0  0  0  0  0  0  0  0  0  0  0  0
   -3.3922    5.0944  -20.5978 C   0  0  0  0  0  0  0  0  0  0  0  0
   -2.9906    6.3527  -21.3707 C   0  0  0  0  0  0  0  0  0  0  0  0
   -3.7246    7.6112  -20.9033 C   0  0  0  0  0  0  0  0  0  0  0  0
   -4.0845    7.5250  -19.4248 C   0  0  0  0  0  0  0  0  0  0  0  0
   -8.5757    3.1210  -10.6638 C   0  0  0  0  0  0  0  0  0  0  0  0
   -8.7598    3.0971   -9.2867 C   0  0  0  0  0  0  0  0  0  0  0  0
  1  2  2  0
  2  3  1  0
  3  4  1  0
  4  5  1  0
  5  6  2  0
  6  7  1  0
  7  8  1  0
  7  9  2  0
  9 10  1  0
 10 11  1  0
 11 12  2  0
 11 13  1  0
 13 14  2  0
 14 15  1  0
 15 16  1  0
 16 17  1  0
 17 18  1  0
 15 19  2  0
 19 20  1  0
 20 21  2  0
 21 22  1  0
 22 23  2  0
 23 24  1  0
 24 25  1  0
 25 26  1  0
 26 27  1  0
 27 28  1  0
 28 29  1  0
 29 30  1  0
  9 31  1  0
 31 32  2  0
 32  2  1  0
 32  5  1  0
 21 13  1  0
 30 25  1  0
 18 16  1  0
 24 20  1  0
M  END
>  <name>  (636) 
P125441

>  <alias>  (636) 
None

>  <smina_score_min>  (636) 
-9.3

>  <exports>  (636) 
['/opt/xchem-fragalysis-2/maxwin/BulkDock/OUTPUTS/openbind_xx01zvns2b_c2_elabs_1LOUTNY.sdf', '/opt/xchem-fragalysis-2/maxwin/BulkDock/OUTPUTS/openbind_xx01zvns2b_c2_elabs_1LSYIIV.sdf']

>  <tags>  (636) 
syndirella_placed,openbind_xx01zvns2b_c2_elabs,openbind_xx01zvns2b_c2_elabs_scored_6.2plus,syndirella_product,openbind_xx01zvns2b_c2_elabs_scored,openbind_xx01zvns2b_c2_elabs_scored_top80percent,BulkDock Fragalysis export

>  <subsites>  (636) 
1 - Z4590/B/203/1

>  <smiles>  (636) 
O=C1NCc2cc(F)c(NC(=O)c3cc(C4CC4)nc4c3cnn4C3CCCCC3)cc21

>  <HIPPO Pose ID>  (636) 
125441

>  <energy_score>  (636) 
-52.201519

>  <inchikey>  (636) 
MEPLAZTVFOWXAX-UHFFFAOYSA-N

>  <gnina_score_min>  (636) 
6.56

>  <gnina_score>  (636) 
6.543

>  <ref_mols>  (636) 
Z3559a

>  <HIPPO Compound ID>  (636) 
179181

>  <distance_score>  (636) 
0.503733

>  <rmsd(smina/fragmenstein)>  (636) 
0.625

>  <ref_pdb>  (636) 
Z3559a

>  <inspiration_score>  (636) 
None

$$$$
P125442
     RDKit          3D

 32 37  0  0  0  0  0  0  0  0999 V2000
   -9.8012    1.8830   -6.2784 C   0  0  0  0  0  0  0  0  0  0  0  0
   -9.4917    2.7405   -7.3849 N   0  0  0  0  0  0  0  0  0  0  0  0
   -8.6344    3.8968   -7.2446 C   0  0  0  0  0  0  0  0  0  0  0  0
   -8.2910    4.2140   -8.6599 C   0  0  0  0  0  0  0  0  0  0  0  0
   -7.6297    5.2978   -9.1949 C   0  0  0  0  0  0  0  0  0  0  0  0
   -7.4541    5.3350  -10.5840 C   0  0  0  0  0  0  0  0  0  0  0  0
   -7.9196    4.2938  -11.4141 C   0  0  0  0  0  0  0  0  0  0  0  0
   -7.7450    4.3519  -12.7930 N   0  0  0  0  0  0  0  0  0  0  0  0
   -6.9791    5.3700  -13.6647 C   0  0  0  0  0  0  0  0  0  0  0  0
   -6.4387    6.3624  -13.3710 O   0  0  0  0  0  0  0  0  0  0  0  0
   -6.9920    5.0071  -15.1043 C   0  0  0  0  0  0  0  0  0  0  0  0
   -8.1073    4.4711  -15.7492 C   0  0  0  0  0  0  0  0  0  0  0  0
   -8.1148    4.3351  -17.1439 C   0  0  0  0  0  0  0  0  0  0  0  0
   -9.3872    3.8257  -17.7979 C   0  0  0  0  0  0  0  0  0  0  0  0
   -9.3497    2.6046  -18.6802 C   0  0  0  0  0  0  0  0  0  0  0  0
   -9.6068    3.9531  -19.2805 C   0  0  0  0  0  0  0  0  0  0  0  0
   -7.0697    4.7233  -17.9306 N   0  0  0  0  0  0  0  0  0  0  0  0
   -6.0051    5.2170  -17.2699 C   0  0  0  0  0  0  0  0  0  0  0  0
   -5.8937    5.3615  -15.8952 C   0  0  0  0  0  0  0  0  0  0  0  0
   -4.6125    5.9054  -15.6904 C   0  0  0  0  0  0  0  0  0  0  0  0
   -3.9542    6.1139  -16.8293 N   0  0  0  0  0  0  0  0  0  0  0  0
   -4.8428    5.7449  -17.7899 N   0  0  0  0  0  0  0  0  0  0  0  0
   -4.5245    6.1355  -19.1562 C   0  0  0  0  0  0  0  0  0  0  0  0
   -4.4936    5.0028  -20.1844 C   0  0  0  0  0  0  0  0  0  0  0  0
   -4.5587    5.4853  -21.6372 C   0  0  0  0  0  0  0  0  0  0  0  0
   -4.0117    6.8962  -21.8003 C   0  0  0  0  0  0  0  0  0  0  0  0
   -4.7572    7.9113  -20.9298 C   0  0  0  0  0  0  0  0  0  0  0  0
   -5.3640    7.3107  -19.6552 C   0  0  0  0  0  0  0  0  0  0  0  0
   -8.5799    3.2001  -10.8663 C   0  0  0  0  0  0  0  0  0  0  0  0
   -8.7583    3.2026   -9.4971 C   0  0  0  0  0  0  0  0  0  0  0  0
   -9.4872    2.2414   -8.6762 C   0  0  0  0  0  0  0  0  0  0  0  0
   -9.9944    1.2226   -9.0943 O   0  0  0  0  0  0  0  0  0  0  0  0
  1  2  1  0
  2  3  1  0
  3  4  1  0
  4  5  2  0
  5  6  1  0
  6  7  2  0
  7  8  1  0
  8  9  1  0
  9 10  2  0
  9 11  1  0
 11 12  2  0
 12 13  1  0
 13 14  1  0
 14 15  1  0
 15 16  1  0
 13 17  2  0
 17 18  1  0
 18 19  2  0
 19 20  1  0
 20 21  2  0
 21 22  1  0
 22 23  1  0
 23 24  1  0
 24 25  1  0
 25 26  1  0
 26 27  1  0
 27 28  1  0
  7 29  1  0
 29 30  2  0
 30 31  1  0
 31 32  2  0
 31  2  1  0
 30  4  1  0
 19 11  1  0
 28 23  1  0
 16 14  1  0
 22 18  1  0
M  END
>  <name>  (637) 
P125442

>  <alias>  (637) 
None

>  <smina_score_min>  (637) 
-9.203

>  <exports>  (637) 
['/opt/xchem-fragalysis-2/maxwin/BulkDock/OUTPUTS/openbind_xx01zvns2b_c2_elabs_1LOUTNY.sdf', '/opt/xchem-fragalysis-2/maxwin/BulkDock/OUTPUTS/openbind_xx01zvns2b_c2_elabs_1LSYIIV.sdf']

>  <tags>  (637) 
syndirella_placed,openbind_xx01zvns2b_c2_elabs,openbind_xx01zvns2b_c2_elabs_scored_6.2plus,syndirella_product,openbind_xx01zvns2b_c2_elabs_scored,openbind_xx01zvns2b_c2_elabs_scored_top80percent,BulkDock Fragalysis export

>  <subsites>  (637) 
1 - Z4590/B/203/1

>  <smiles>  (637) 
CN1Cc2ccc(NC(=O)c3cc(C4CC4)nc4c3cnn4C3CCCCC3)cc2C1=O

>  <HIPPO Pose ID>  (637) 
125442

>  <energy_score>  (637) 
-51.042734

>  <inchikey>  (637) 
NYZBVIOEQRDRRA-UHFFFAOYSA-N

>  <gnina_score_min>  (637) 
6.318

>  <gnina_score>  (637) 
6.386

>  <ref_mols>  (637) 
Z3559a

>  <HIPPO Compound ID>  (637) 
179176

>  <distance_score>  (637) 
0.497861

>  <rmsd(smina/fragmenstein)>  (637) 
0.317

>  <ref_pdb>  (637) 
Z3559a

>  <inspiration_score>  (637) 
None

$$$$
P125443
     RDKit          3D

 32 37  0  0  0  0  0  0  0  0999 V2000
  -10.0159    2.0645   -6.0994 C   0  0  0  0  0  0  0  0  0  0  0  0
   -9.2616    2.6302   -7.1866 N   0  0  0  0  0  0  0  0  0  0  0  0
   -9.1860    1.9791   -8.4836 C   0  0  0  0  0  0  0  0  0  0  0  0
   -8.6304    3.0562   -9.3533 C   0  0  0  0  0  0  0  0  0  0  0  0
   -8.4210    3.0711  -10.7236 C   0  0  0  0  0  0  0  0  0  0  0  0
   -7.9389    4.2507  -11.3013 C   0  0  0  0  0  0  0  0  0  0  0  0
   -7.7519    4.3101  -12.6807 N   0  0  0  0  0  0  0  0  0  0  0  0
   -7.1251    5.4122  -13.5610 C   0  0  0  0  0  0  0  0  0  0  0  0
   -6.7365    6.4763  -13.2789 O   0  0  0  0  0  0  0  0  0  0  0  0
   -7.0590    5.0303  -14.9902 C   0  0  0  0  0  0  0  0  0  0  0  0
   -8.1322    4.4571  -15.6693 C   0  0  0  0  0  0  0  0  0  0  0  0
   -8.0942    4.3400  -17.0659 C   0  0  0  0  0  0  0  0  0  0  0  0
   -9.3451    3.8219  -17.7595 C   0  0  0  0  0  0  0  0  0  0  0  0
   -9.2739    2.6286  -18.6767 C   0  0  0  0  0  0  0  0  0  0  0  0
   -9.5431    3.9892  -19.2417 C   0  0  0  0  0  0  0  0  0  0  0  0
   -7.0344    4.7641  -17.8194 N   0  0  0  0  0  0  0  0  0  0  0  0
   -6.0121    5.3003  -17.1201 C   0  0  0  0  0  0  0  0  0  0  0  0
   -5.9525    5.4367  -15.7407 C   0  0  0  0  0  0  0  0  0  0  0  0
   -4.7095    6.0419  -15.4840 C   0  0  0  0  0  0  0  0  0  0  0  0
   -4.0242    6.2945  -16.5966 N   0  0  0  0  0  0  0  0  0  0  0  0
   -4.8604    5.8972  -17.5903 N   0  0  0  0  0  0  0  0  0  0  0  0
   -4.4711    6.2612  -18.9455 C   0  0  0  0  0  0  0  0  0  0  0  0
   -5.4560    7.1918  -19.6560 C   0  0  0  0  0  0  0  0  0  0  0  0
   -4.8883    7.6301  -21.0094 C   0  0  0  0  0  0  0  0  0  0  0  0
   -4.5382    6.4345  -21.8908 C   0  0  0  0  0  0  0  0  0  0  0  0
   -3.5819    5.4814  -21.1850 C   0  0  0  0  0  0  0  0  0  0  0  0
   -4.1013    5.0655  -19.8106 C   0  0  0  0  0  0  0  0  0  0  0  0
   -7.6661    5.3808  -10.5033 C   0  0  0  0  0  0  0  0  0  0  0  0
   -7.8784    5.3575   -9.1246 C   0  0  0  0  0  0  0  0  0  0  0  0
   -8.3599    4.1858   -8.5827 C   0  0  0  0  0  0  0  0  0  0  0  0
   -8.7763    3.9206   -7.2013 C   0  0  0  0  0  0  0  0  0  0  0  0
   -8.7461    4.7410   -6.3023 O   0  0  0  0  0  0  0  0  0  0  0  0
  1  2  1  0
  2  3  1  0
  3  4  1  0
  4  5  2  0
  5  6  1  0
  6  7  1  0
  7  8  1  0
  8  9  2  0
  8 10  1  0
 10 11  2  0
 11 12  1  0
 12 13  1  0
 13 14  1  0
 14 15  1  0
 12 16  2  0
 16 17  1  0
 17 18  2  0
 18 19  1  0
 19 20  2  0
 20 21  1  0
 21 22  1  0
 22 23  1  0
 23 24  1  0
 24 25  1  0
 25 26  1  0
 26 27  1  0
  6 28  2  0
 28 29  1  0
 29 30  2  0
 30 31  1  0
 31 32  2  0
 31  2  1  0
 30  4  1  0
 18 10  1  0
 27 22  1  0
 15 13  1  0
 21 17  1  0
M  END
>  <name>  (638) 
P125443

>  <alias>  (638) 
None

>  <smina_score_min>  (638) 
-9.688

>  <exports>  (638) 
['/opt/xchem-fragalysis-2/maxwin/BulkDock/OUTPUTS/openbind_xx01zvns2b_c2_elabs_1LOUTNY.sdf', '/opt/xchem-fragalysis-2/maxwin/BulkDock/OUTPUTS/openbind_xx01zvns2b_c2_elabs_1LSYIIV.sdf']

>  <tags>  (638) 
syndirella_placed,openbind_xx01zvns2b_c2_elabs,openbind_xx01zvns2b_c2_elabs_scored_6.2plus,syndirella_product,openbind_xx01zvns2b_c2_elabs_scored,openbind_xx01zvns2b_c2_elabs_scored_top80percent,BulkDock Fragalysis export

>  <subsites>  (638) 
1 - Z4590/B/203/1

>  <smiles>  (638) 
CN1Cc2cc(NC(=O)c3cc(C4CC4)nc4c3cnn4C3CCCCC3)ccc2C1=O

>  <HIPPO Pose ID>  (638) 
125443

>  <energy_score>  (638) 
-40.030902

>  <inchikey>  (638) 
WSYNTDQTLDHKKX-UHFFFAOYSA-N

>  <gnina_score_min>  (638) 
6.39

>  <gnina_score>  (638) 
6.404

>  <ref_mols>  (638) 
Z3559a

>  <HIPPO Compound ID>  (638) 
179170

>  <distance_score>  (638) 
0.472991

>  <rmsd(smina/fragmenstein)>  (638) 
0.294

>  <ref_pdb>  (638) 
Z3559a

>  <inspiration_score>  (638) 
None

$$$$
P125444
     RDKit          3D

 32 37  0  0  0  0  0  0  0  0999 V2000
  -10.9277    1.8295   -5.5963 C   0  0  0  0  0  0  0  0  0  0  0  0
  -10.2152    3.1239   -5.9229 C   0  0  0  0  0  0  0  0  0  0  0  0
   -9.0173    2.9794   -6.7459 N   0  0  0  0  0  0  0  0  0  0  0  0
   -8.3493    4.2790   -6.9311 C   0  0  0  0  0  0  0  0  0  0  0  0
   -8.1685    4.4575   -8.3971 C   0  0  0  0  0  0  0  0  0  0  0  0
   -7.6258    5.5398   -9.0574 C   0  0  0  0  0  0  0  0  0  0  0  0
   -7.5427    5.4855  -10.4460 C   0  0  0  0  0  0  0  0  0  0  0  0
   -7.9895    4.3602  -11.1601 C   0  0  0  0  0  0  0  0  0  0  0  0
   -7.8566    4.3457  -12.5507 N   0  0  0  0  0  0  0  0  0  0  0  0
   -7.2654    5.4047  -13.5166 C   0  0  0  0  0  0  0  0  0  0  0  0
   -6.8689    6.4847  -13.3064 O   0  0  0  0  0  0  0  0  0  0  0  0
   -7.2274    4.9618  -14.9272 C   0  0  0  0  0  0  0  0  0  0  0  0
   -8.3347    4.4075  -15.5760 C   0  0  0  0  0  0  0  0  0  0  0  0
   -8.3099    4.2157  -16.9645 C   0  0  0  0  0  0  0  0  0  0  0  0
   -9.5624    3.7531  -17.6776 C   0  0  0  0  0  0  0  0  0  0  0  0
   -9.7291    3.9622  -19.1623 C   0  0  0  0  0  0  0  0  0  0  0  0
   -9.4970    2.5823  -18.6255 C   0  0  0  0  0  0  0  0  0  0  0  0
   -7.2269    4.5114  -17.7242 N   0  0  0  0  0  0  0  0  0  0  0  0
   -6.1872    5.0389  -17.0624 C   0  0  0  0  0  0  0  0  0  0  0  0
   -6.1112    5.2943  -15.7077 C   0  0  0  0  0  0  0  0  0  0  0  0
   -4.8491    5.9030  -15.5396 C   0  0  0  0  0  0  0  0  0  0  0  0
   -4.1767    6.0398  -16.6882 N   0  0  0  0  0  0  0  0  0  0  0  0
   -5.0120    5.4927  -17.6057 N   0  0  0  0  0  0  0  0  0  0  0  0
   -4.7044    5.5554  -19.0328 C   0  0  0  0  0  0  0  0  0  0  0  0
   -3.2107    5.3315  -19.3555 C   0  0  0  0  0  0  0  0  0  0  0  0
   -2.4690    6.6398  -19.6100 C   0  0  0  0  0  0  0  0  0  0  0  0
   -3.0723    7.4183  -20.7811 C   0  0  0  0  0  0  0  0  0  0  0  0
   -4.5775    7.2042  -20.9492 C   0  0  0  0  0  0  0  0  0  0  0  0
   -5.2496    6.8673  -19.6257 C   0  0  0  0  0  0  0  0  0  0  0  0
   -8.5477    3.2725  -10.4747 C   0  0  0  0  0  0  0  0  0  0  0  0
   -8.6377    3.3450   -9.0855 C   0  0  0  0  0  0  0  0  0  0  0  0
   -9.2217    2.3769   -8.0965 C   0  0  0  0  0  0  0  0  0  0  0  0
  1  2  1  0
  2  3  1  0
  3  4  1  0
  4  5  1  0
  5  6  2  0
  6  7  1  0
  7  8  2  0
  8  9  1  0
  9 10  1  0
 10 11  2  0
 10 12  1  0
 12 13  2  0
 13 14  1  0
 14 15  1  0
 15 16  1  0
 16 17  1  0
 14 18  2  0
 18 19  1  0
 19 20  2  0
 20 21  1  0
 21 22  2  0
 22 23  1  0
 23 24  1  0
 24 25  1  0
 25 26  1  0
 26 27  1  0
 27 28  1  0
 28 29  1  0
  8 30  1  0
 30 31  2  0
 31 32  1  0
 32  3  1  0
 31  5  1  0
 20 12  1  0
 29 24  1  0
 17 15  1  0
 23 19  1  0
M  END
>  <name>  (639) 
P125444

>  <alias>  (639) 
None

>  <smina_score_min>  (639) 
-9.114

>  <exports>  (639) 
['/opt/xchem-fragalysis-2/maxwin/BulkDock/OUTPUTS/openbind_xx01zvns2b_c2_elabs_1LOUTNY.sdf', '/opt/xchem-fragalysis-2/maxwin/BulkDock/OUTPUTS/openbind_xx01zvns2b_c2_elabs_1LSYIIV.sdf']

>  <tags>  (639) 
syndirella_placed,openbind_xx01zvns2b_c2_elabs,openbind_xx01zvns2b_c2_elabs_scored_6.2plus,syndirella_product,openbind_xx01zvns2b_c2_elabs_scored,openbind_xx01zvns2b_c2_elabs_scored_top80percent,BulkDock Fragalysis export

>  <subsites>  (639) 
1 - Z4590/B/203/1

>  <smiles>  (639) 
CCN1Cc2ccc(NC(=O)c3cc(C4CC4)nc4c3cnn4C3CCCCC3)cc2C1

>  <HIPPO Pose ID>  (639) 
125444

>  <energy_score>  (639) 
-33.457464

>  <inchikey>  (639) 
MCWPICROZNBHRS-UHFFFAOYSA-N

>  <gnina_score_min>  (639) 
6.42

>  <gnina_score>  (639) 
6.483

>  <ref_mols>  (639) 
Z3559a

>  <HIPPO Compound ID>  (639) 
179182

>  <distance_score>  (639) 
0.475523

>  <rmsd(smina/fragmenstein)>  (639) 
0.49

>  <ref_pdb>  (639) 
Z3559a

>  <inspiration_score>  (639) 
None

$$$$
P125448
     RDKit          3D

 32 36  0  0  0  0  0  0  0  0999 V2000
   -8.2503    4.8279   -3.6625 C   0  0  0  0  0  0  0  0  0  0  0  0
   -9.4307    3.8761   -3.6183 C   0  0  0  0  0  0  0  0  0  0  0  0
  -10.1096    3.5871   -4.9651 C   0  0  0  0  0  0  0  0  0  0  0  0
   -9.2844    2.7076   -5.9196 C   0  0  0  0  0  0  0  0  0  0  0  0
   -9.0891    3.3058   -7.2231 N   0  0  0  0  0  0  0  0  0  0  0  0
   -8.9885    2.4936   -8.4427 C   0  0  0  0  0  0  0  0  0  0  0  0
   -8.3541    3.4452   -9.4114 C   0  0  0  0  0  0  0  0  0  0  0  0
   -8.0578    3.3311  -10.7604 C   0  0  0  0  0  0  0  0  0  0  0  0
   -7.4234    4.4191  -11.3945 C   0  0  0  0  0  0  0  0  0  0  0  0
   -7.1856    4.3755  -12.7644 N   0  0  0  0  0  0  0  0  0  0  0  0
   -6.6359    5.4623  -13.7271 C   0  0  0  0  0  0  0  0  0  0  0  0
   -6.2261    6.5346  -13.5046 O   0  0  0  0  0  0  0  0  0  0  0  0
   -6.7620    5.0621  -15.1453 C   0  0  0  0  0  0  0  0  0  0  0  0
   -7.9905    4.6387  -15.6811 C   0  0  0  0  0  0  0  0  0  0  0  0
   -9.3796    4.6791  -14.6673 Cl  0  0  0  0  0  0  0  0  0  0  0  0
   -8.1172    4.3307  -17.0484 C   0  0  0  0  0  0  0  0  0  0  0  0
   -9.4254    3.8294  -17.6603 C   0  0  0  0  0  0  0  0  0  0  0  0
   -9.7251    4.0426  -19.1241 C   0  0  0  0  0  0  0  0  0  0  0  0
   -9.4010    2.6673  -18.6271 C   0  0  0  0  0  0  0  0  0  0  0  0
   -7.0871    4.5227  -17.9069 N   0  0  0  0  0  0  0  0  0  0  0  0
   -5.9654    5.0235  -17.3704 C   0  0  0  0  0  0  0  0  0  0  0  0
   -5.7114    5.2942  -16.0382 C   0  0  0  0  0  0  0  0  0  0  0  0
   -4.3717    5.7722  -16.0219 C   0  0  0  0  0  0  0  0  0  0  0  0
   -3.5467    6.1892  -14.8597 C   0  0  0  0  0  0  0  0  0  0  0  0
   -3.8491    5.8398  -17.2573 N   0  0  0  0  0  0  0  0  0  0  0  0
   -4.8459    5.3977  -18.0524 N   0  0  0  0  0  0  0  0  0  0  0  0
   -4.6912    5.4164  -19.4842 C   0  0  0  0  0  0  0  0  0  0  0  0
   -7.1026    5.5877  -10.6832 C   0  0  0  0  0  0  0  0  0  0  0  0
   -7.4082    5.7006   -9.3370 C   0  0  0  0  0  0  0  0  0  0  0  0
   -8.0262    4.6217   -8.7463 C   0  0  0  0  0  0  0  0  0  0  0  0
   -8.4262    4.5099   -7.3579 C   0  0  0  0  0  0  0  0  0  0  0  0
   -8.1690    5.3626   -6.5295 O   0  0  0  0  0  0  0  0  0  0  0  0
  1  2  1  0
  2  3  1  0
  3  4  1  0
  4  5  1  0
  5  6  1  0
  6  7  1  0
  7  8  2  0
  8  9  1  0
  9 10  1  0
 10 11  1  0
 11 12  2  0
 11 13  1  0
 13 14  2  0
 14 15  1  0
 14 16  1  0
 16 17  1  0
 17 18  1  0
 18 19  1  0
 16 20  2  0
 20 21  1  0
 21 22  2  0
 22 23  1  0
 23 24  1  0
 23 25  2  0
 25 26  1  0
 26 27  1  0
  9 28  2  0
 28 29  1  0
 29 30  2  0
 30 31  1  0
 31 32  2  0
 31  5  1  0
 30  7  1  0
 22 13  1  0
 19 17  1  0
 26 21  1  0
M  END
>  <name>  (640) 
P125448

>  <alias>  (640) 
None

>  <smina_score_min>  (640) 
-8.491

>  <exports>  (640) 
['/opt/xchem-fragalysis-2/maxwin/BulkDock/OUTPUTS/openbind_xx01zvns2b_c2_elabs_1LOUTNY.sdf', '/opt/xchem-fragalysis-2/maxwin/BulkDock/OUTPUTS/openbind_xx01zvns2b_c2_elabs_1LSYIIV.sdf']

>  <tags>  (640) 
syndirella_placed,openbind_xx01zvns2b_c2_elabs,openbind_xx01zvns2b_c2_elabs_scored_6.2plus,syndirella_product,openbind_xx01zvns2b_c2_elabs_scored,openbind_xx01zvns2b_c2_elabs_scored_top80percent,BulkDock Fragalysis export

>  <subsites>  (640) 
1 - Z4590/B/203/1

>  <smiles>  (640) 
CCCCN1Cc2cc(NC(=O)c3c(Cl)c(C4CC4)nc4c3c(C)nn4C)ccc2C1=O

>  <HIPPO Pose ID>  (640) 
125448

>  <energy_score>  (640) 
-38.6197

>  <inchikey>  (640) 
DIBCBQOFSKBKDD-UHFFFAOYSA-N

>  <gnina_score_min>  (640) 
6.573

>  <gnina_score>  (640) 
6.612

>  <ref_mols>  (640) 
Z3559a

>  <HIPPO Compound ID>  (640) 
179389

>  <distance_score>  (640) 
0.73144

>  <rmsd(smina/fragmenstein)>  (640) 
0.813

>  <ref_pdb>  (640) 
Z3559a

>  <inspiration_score>  (640) 
None

$$$$
P125451
     RDKit          3D

 32 36  0  0  0  0  0  0  0  0999 V2000
   -3.5617    6.1772  -14.6801 C   0  0  0  0  0  0  0  0  0  0  0  0
   -4.3752    5.7653  -15.8523 C   0  0  0  0  0  0  0  0  0  0  0  0
   -3.8403    5.8409  -17.0824 N   0  0  0  0  0  0  0  0  0  0  0  0
   -4.8281    5.4021  -17.8897 N   0  0  0  0  0  0  0  0  0  0  0  0
   -4.6573    5.4271  -19.3203 C   0  0  0  0  0  0  0  0  0  0  0  0
   -5.9540    5.0241  -17.2200 C   0  0  0  0  0  0  0  0  0  0  0  0
   -7.0692    4.5290  -17.7737 N   0  0  0  0  0  0  0  0  0  0  0  0
   -8.1091    4.3342  -16.9290 C   0  0  0  0  0  0  0  0  0  0  0  0
   -9.4095    3.8390  -17.5669 C   0  0  0  0  0  0  0  0  0  0  0  0
   -9.7054    4.1025  -19.0251 C   0  0  0  0  0  0  0  0  0  0  0  0
   -9.3690    2.7137  -18.5782 C   0  0  0  0  0  0  0  0  0  0  0  0
   -7.9975    4.6357  -15.5560 C   0  0  0  0  0  0  0  0  0  0  0  0
   -9.4027    4.7006  -14.5687 Cl  0  0  0  0  0  0  0  0  0  0  0  0
   -6.7746    5.0490  -14.9965 C   0  0  0  0  0  0  0  0  0  0  0  0
   -6.6728    5.4693  -13.5766 C   0  0  0  0  0  0  0  0  0  0  0  0
   -6.2592    6.5456  -13.3745 O   0  0  0  0  0  0  0  0  0  0  0  0
   -7.2448    4.4077  -12.5928 N   0  0  0  0  0  0  0  0  0  0  0  0
   -7.5033    4.4876  -11.2224 C   0  0  0  0  0  0  0  0  0  0  0  0
   -7.3214    5.7171  -10.5719 C   0  0  0  0  0  0  0  0  0  0  0  0
   -7.6585    5.8745   -9.2342 C   0  0  0  0  0  0  0  0  0  0  0  0
   -8.1621    4.7813   -8.5606 C   0  0  0  0  0  0  0  0  0  0  0  0
   -8.3431    3.5458   -9.1747 C   0  0  0  0  0  0  0  0  0  0  0  0
   -8.0292    3.3842  -10.5218 C   0  0  0  0  0  0  0  0  0  0  0  0
   -8.9276    2.5947   -8.1607 C   0  0  0  0  0  0  0  0  0  0  0  0
   -8.8197    3.3140   -6.8492 N   0  0  0  0  0  0  0  0  0  0  0  0
   -9.9105    3.0206   -5.9228 C   0  0  0  0  0  0  0  0  0  0  0  0
  -10.1033    3.9517   -4.6970 C   0  0  0  0  0  0  0  0  0  0  0  0
   -9.0593    3.9347   -3.5624 C   0  0  0  0  0  0  0  0  0  0  0  0
   -7.6881    4.4626   -3.9533 C   0  0  0  0  0  0  0  0  0  0  0  0
   -9.5637    4.7631   -2.3726 C   0  0  0  0  0  0  0  0  0  0  0  0
   -8.6112    4.7298   -7.1457 C   0  0  0  0  0  0  0  0  0  0  0  0
   -5.7148    5.2846  -15.8818 C   0  0  0  0  0  0  0  0  0  0  0  0
  1  2  1  0
  2  3  2  0
  3  4  1  0
  4  5  1  0
  4  6  1  0
  6  7  2  0
  7  8  1  0
  8  9  1  0
  9 10  1  0
 10 11  1  0
  8 12  2  0
 12 13  1  0
 12 14  1  0
 14 15  1  0
 15 16  2  0
 15 17  1  0
 17 18  1  0
 18 19  2  0
 19 20  1  0
 20 21  2  0
 21 22  1  0
 22 23  2  0
 22 24  1  0
 24 25  1  0
 25 26  1  0
 26 27  1  0
 27 28  1  0
 28 29  1  0
 28 30  1  0
 25 31  1  0
 14 32  2  0
 32  2  1  0
 32  6  1  0
 11  9  1  0
 23 18  1  0
 31 21  1  0
M  END
>  <name>  (641) 
P125451

>  <alias>  (641) 
None

>  <smina_score_min>  (641) 
-8.233

>  <exports>  (641) 
['/opt/xchem-fragalysis-2/maxwin/BulkDock/OUTPUTS/openbind_xx01zvns2b_c2_elabs_1LOUTNY.sdf', '/opt/xchem-fragalysis-2/maxwin/BulkDock/OUTPUTS/openbind_xx01zvns2b_c2_elabs_1LSYIIV.sdf']

>  <tags>  (641) 
syndirella_placed,openbind_xx01zvns2b_c2_elabs,openbind_xx01zvns2b_c2_elabs_scored_6.2plus,syndirella_product,openbind_xx01zvns2b_c2_elabs_scored,openbind_xx01zvns2b_c2_elabs_scored_top80percent,BulkDock Fragalysis export

>  <subsites>  (641) 
1 - Z4590/B/203/1

>  <smiles>  (641) 
Cc1nn(C)c2nc(C3CC3)c(Cl)c(C(=O)Nc3ccc4c(c3)CN(CCC(C)C)C4)c12

>  <HIPPO Pose ID>  (641) 
125451

>  <energy_score>  (641) 
-17.885075

>  <inchikey>  (641) 
PVDFLJDNMAWMHR-UHFFFAOYSA-N

>  <gnina_score_min>  (641) 
6.59

>  <gnina_score>  (641) 
6.588

>  <ref_mols>  (641) 
Z3559a

>  <HIPPO Compound ID>  (641) 
179373

>  <distance_score>  (641) 
0.723191

>  <rmsd(smina/fragmenstein)>  (641) 
0.45

>  <ref_pdb>  (641) 
Z3559a

>  <inspiration_score>  (641) 
None

$$$$
P125455
     RDKit          3D

 32 36  0  0  0  0  0  0  0  0999 V2000
   -7.1968    4.7639   -3.7734 C   0  0  0  0  0  0  0  0  0  0  0  0
   -7.4022    3.7017   -4.6988 O   0  0  0  0  0  0  0  0  0  0  0  0
   -8.8149    3.4402   -4.8541 C   0  0  0  0  0  0  0  0  0  0  0  0
   -9.1158    2.5785   -6.0955 C   0  0  0  0  0  0  0  0  0  0  0  0
   -8.8708    3.2113   -7.3802 N   0  0  0  0  0  0  0  0  0  0  0  0
   -8.8098    2.4258   -8.6159 C   0  0  0  0  0  0  0  0  0  0  0  0
   -8.3743    3.4477   -9.6205 C   0  0  0  0  0  0  0  0  0  0  0  0
   -8.0720    3.3372  -10.9723 C   0  0  0  0  0  0  0  0  0  0  0  0
   -7.6685    4.4974  -11.6597 C   0  0  0  0  0  0  0  0  0  0  0  0
   -7.3422    4.4409  -13.0158 N   0  0  0  0  0  0  0  0  0  0  0  0
   -6.8984    5.5607  -13.9918 C   0  0  0  0  0  0  0  0  0  0  0  0
   -6.6627    6.6889  -13.7941 O   0  0  0  0  0  0  0  0  0  0  0  0
   -6.7637    5.0998  -15.3925 C   0  0  0  0  0  0  0  0  0  0  0  0
   -7.8486    4.5953  -16.1402 C   0  0  0  0  0  0  0  0  0  0  0  0
   -9.3225    4.3545  -15.3170 Cl  0  0  0  0  0  0  0  0  0  0  0  0
   -7.7306    4.3877  -17.5312 C   0  0  0  0  0  0  0  0  0  0  0  0
   -8.7743    3.9026  -18.5282 C   0  0  0  0  0  0  0  0  0  0  0  0
  -10.2558    3.7794  -18.3797 C   0  0  0  0  0  0  0  0  0  0  0  0
   -9.3935    2.5446  -18.3590 C   0  0  0  0  0  0  0  0  0  0  0  0
   -6.5764    4.6723  -18.1738 N   0  0  0  0  0  0  0  0  0  0  0  0
   -5.5854    5.1673  -17.4326 C   0  0  0  0  0  0  0  0  0  0  0  0
   -5.5791    5.3954  -16.0742 C   0  0  0  0  0  0  0  0  0  0  0  0
   -4.2827    5.9185  -15.8117 C   0  0  0  0  0  0  0  0  0  0  0  0
   -3.6953    6.3344  -14.5124 C   0  0  0  0  0  0  0  0  0  0  0  0
   -3.5486    6.0228  -16.9327 N   0  0  0  0  0  0  0  0  0  0  0  0
   -4.3770    5.5793  -17.8989 N   0  0  0  0  0  0  0  0  0  0  0  0
   -3.9680    5.6122  -19.2786 C   0  0  0  0  0  0  0  0  0  0  0  0
   -7.6020    5.7365  -10.9935 C   0  0  0  0  0  0  0  0  0  0  0  0
   -7.9113    5.8437   -9.6438 C   0  0  0  0  0  0  0  0  0  0  0  0
   -8.2830    4.6886   -8.9951 C   0  0  0  0  0  0  0  0  0  0  0  0
   -8.6330    4.5492   -7.5884 C   0  0  0  0  0  0  0  0  0  0  0  0
   -8.6965    5.4977   -6.8280 O   0  0  0  0  0  0  0  0  0  0  0  0
  1  2  1  0
  2  3  1  0
  3  4  1  0
  4  5  1  0
  5  6  1  0
  6  7  1  0
  7  8  2  0
  8  9  1  0
  9 10  1  0
 10 11  1  0
 11 12  2  0
 11 13  1  0
 13 14  2  0
 14 15  1  0
 14 16  1  0
 16 17  1  0
 17 18  1  0
 18 19  1  0
 16 20  2  0
 20 21  1  0
 21 22  2  0
 22 23  1  0
 23 24  1  0
 23 25  2  0
 25 26  1  0
 26 27  1  0
  9 28  2  0
 28 29  1  0
 29 30  2  0
 30 31  1  0
 31 32  2  0
 31  5  1  0
 30  7  1  0
 22 13  1  0
 19 17  1  0
 26 21  1  0
M  END
>  <name>  (642) 
P125455

>  <alias>  (642) 
None

>  <smina_score_min>  (642) 
-8.335

>  <exports>  (642) 
['/opt/xchem-fragalysis-2/maxwin/BulkDock/OUTPUTS/openbind_xx01zvns2b_c2_elabs_1LOUTNY.sdf', '/opt/xchem-fragalysis-2/maxwin/BulkDock/OUTPUTS/openbind_xx01zvns2b_c2_elabs_1LSYIIV.sdf']

>  <tags>  (642) 
syndirella_placed,openbind_xx01zvns2b_c2_elabs,openbind_xx01zvns2b_c2_elabs_scored_6.2plus,syndirella_product,openbind_xx01zvns2b_c2_elabs_scored,openbind_xx01zvns2b_c2_elabs_scored_top80percent,BulkDock Fragalysis export

>  <subsites>  (642) 
1 - Z4590/B/203/1

>  <smiles>  (642) 
COCCN1Cc2cc(NC(=O)c3c(Cl)c(C4CC4)nc4c3c(C)nn4C)ccc2C1=O

>  <HIPPO Pose ID>  (642) 
125455

>  <energy_score>  (642) 
-41.26381

>  <inchikey>  (642) 
DNFHLXVBBKALLU-UHFFFAOYSA-N

>  <gnina_score_min>  (642) 
6.666

>  <gnina_score>  (642) 
6.544

>  <ref_mols>  (642) 
Z3559a

>  <HIPPO Compound ID>  (642) 
179377

>  <distance_score>  (642) 
0.883884

>  <rmsd(smina/fragmenstein)>  (642) 
0.973

>  <ref_pdb>  (642) 
Z3559a

>  <inspiration_score>  (642) 
None

$$$$
P125456
     RDKit          3D

 32 37  0  0  0  0  0  0  0  0999 V2000
   -9.9696    2.1222   -6.1270 C   0  0  0  0  0  0  0  0  0  0  0  0
   -9.2361    2.6790   -7.2328 N   0  0  0  0  0  0  0  0  0  0  0  0
   -9.1860    2.0166   -8.5249 C   0  0  0  0  0  0  0  0  0  0  0  0
   -8.6001    3.0698   -9.4035 C   0  0  0  0  0  0  0  0  0  0  0  0
   -8.3905    3.0656  -10.7734 C   0  0  0  0  0  0  0  0  0  0  0  0
   -7.8553    4.2168  -11.3641 C   0  0  0  0  0  0  0  0  0  0  0  0
   -7.6836    4.2467  -12.7468 N   0  0  0  0  0  0  0  0  0  0  0  0
   -6.9739    5.2837  -13.6488 C   0  0  0  0  0  0  0  0  0  0  0  0
   -6.4894    6.3128  -13.3828 O   0  0  0  0  0  0  0  0  0  0  0  0
   -7.0298    4.9063  -15.0833 C   0  0  0  0  0  0  0  0  0  0  0  0
   -8.1876    4.3676  -15.6649 C   0  0  0  0  0  0  0  0  0  0  0  0
   -8.2801    4.2280  -17.0538 C   0  0  0  0  0  0  0  0  0  0  0  0
   -9.5666    3.7461  -17.6824 C   0  0  0  0  0  0  0  0  0  0  0  0
   -9.8373    3.9536  -19.1519 C   0  0  0  0  0  0  0  0  0  0  0  0
   -9.5333    2.5789  -18.6376 C   0  0  0  0  0  0  0  0  0  0  0  0
   -7.2816    4.5970  -17.8839 N   0  0  0  0  0  0  0  0  0  0  0  0
   -6.1950    5.1092  -17.2938 C   0  0  0  0  0  0  0  0  0  0  0  0
   -5.9879    5.2850  -15.9402 C   0  0  0  0  0  0  0  0  0  0  0  0
   -4.7187    5.8968  -15.8632 C   0  0  0  0  0  0  0  0  0  0  0  0
   -4.1864    6.1557  -17.0653 N   0  0  0  0  0  0  0  0  0  0  0  0
   -5.1258    5.6849  -17.9321 N   0  0  0  0  0  0  0  0  0  0  0  0
   -5.1752    6.1767  -19.3030 C   0  0  0  0  0  0  0  0  0  0  0  0
   -4.3044    5.4489  -20.2704 C   0  0  0  0  0  0  0  0  0  0  0  0
   -4.8021    4.6177  -21.3311 C   0  0  0  0  0  0  0  0  0  0  0  0
   -3.8032    4.1604  -22.1596 C   0  0  0  0  0  0  0  0  0  0  0  0
   -2.2702    4.7396  -21.6844 S   0  0  0  0  0  0  0  0  0  0  0  0
   -2.9269    5.5506  -20.3334 C   0  0  0  0  0  0  0  0  0  0  0  0
   -7.5370    5.3419  -10.5784 C   0  0  0  0  0  0  0  0  0  0  0  0
   -7.7595    5.3415   -9.1992 C   0  0  0  0  0  0  0  0  0  0  0  0
   -8.2893    4.1958   -8.6441 C   0  0  0  0  0  0  0  0  0  0  0  0
   -8.7077    3.9525   -7.2581 C   0  0  0  0  0  0  0  0  0  0  0  0
   -8.6407    4.7740   -6.3619 O   0  0  0  0  0  0  0  0  0  0  0  0
  1  2  1  0
  2  3  1  0
  3  4  1  0
  4  5  2  0
  5  6  1  0
  6  7  1  0
  7  8  1  0
  8  9  2  0
  8 10  1  0
 10 11  2  0
 11 12  1  0
 12 13  1  0
 13 14  1  0
 14 15  1  0
 12 16  2  0
 16 17  1  0
 17 18  2  0
 18 19  1  0
 19 20  2  0
 20 21  1  0
 21 22  1  0
 22 23  1  0
 23 24  1  0
 24 25  2  0
 25 26  1  0
 26 27  1  0
  6 28  2  0
 28 29  1  0
 29 30  2  0
 30 31  1  0
 31 32  2  0
 31  2  1  0
 30  4  1  0
 18 10  1  0
 27 23  2  0
 15 13  1  0
 21 17  1  0
M  END
>  <name>  (643) 
P125456

>  <alias>  (643) 
None

>  <smina_score_min>  (643) 
-9.646

>  <exports>  (643) 
['/opt/xchem-fragalysis-2/maxwin/BulkDock/OUTPUTS/openbind_xx01zvns2b_c2_elabs_1LOUTNY.sdf', '/opt/xchem-fragalysis-2/maxwin/BulkDock/OUTPUTS/openbind_xx01zvns2b_c2_elabs_1LSYIIV.sdf']

>  <tags>  (643) 
syndirella_placed,openbind_xx01zvns2b_c2_elabs,openbind_xx01zvns2b_c2_elabs_scored_6.2plus,syndirella_product,openbind_xx01zvns2b_c2_elabs_scored,openbind_xx01zvns2b_c2_elabs_scored_top80percent,BulkDock Fragalysis export

>  <subsites>  (643) 
1 - Z4590/B/203/1

>  <smiles>  (643) 
CN1Cc2cc(NC(=O)c3cc(C4CC4)nc4c3cnn4Cc3ccsc3)ccc2C1=O

>  <HIPPO Pose ID>  (643) 
125456

>  <energy_score>  (643) 
-36.302101

>  <inchikey>  (643) 
IKRPVABKEOUCTG-UHFFFAOYSA-N

>  <gnina_score_min>  (643) 
6.487

>  <gnina_score>  (643) 
6.447

>  <ref_mols>  (643) 
Z3559a

>  <HIPPO Compound ID>  (643) 
179160

>  <distance_score>  (643) 
0.415473

>  <rmsd(smina/fragmenstein)>  (643) 
0.146

>  <ref_pdb>  (643) 
Z3559a

>  <inspiration_score>  (643) 
None

$$$$
P125457
     RDKit          3D

 32 37  0  0  0  0  0  0  0  0999 V2000
   -9.9547    1.0531   -8.7594 O   0  0  0  0  0  0  0  0  0  0  0  0
   -9.4031    2.0659   -8.3889 C   0  0  0  0  0  0  0  0  0  0  0  0
   -9.2902    2.5092   -7.0886 N   0  0  0  0  0  0  0  0  0  0  0  0
   -8.6165    3.7727   -6.9888 C   0  0  0  0  0  0  0  0  0  0  0  0
   -8.3481    4.1130   -8.4146 C   0  0  0  0  0  0  0  0  0  0  0  0
   -7.7809    5.2438   -8.9605 C   0  0  0  0  0  0  0  0  0  0  0  0
   -7.6471    5.3093  -10.3515 C   0  0  0  0  0  0  0  0  0  0  0  0
   -7.1303    6.4426  -10.8404 F   0  0  0  0  0  0  0  0  0  0  0  0
   -8.0553    4.2544  -11.1998 C   0  0  0  0  0  0  0  0  0  0  0  0
   -7.9090    4.2965  -12.5969 N   0  0  0  0  0  0  0  0  0  0  0  0
   -7.1473    5.3022  -13.5003 C   0  0  0  0  0  0  0  0  0  0  0  0
   -6.5892    6.2926  -13.2282 O   0  0  0  0  0  0  0  0  0  0  0  0
   -7.1769    4.9352  -14.9408 C   0  0  0  0  0  0  0  0  0  0  0  0
   -8.3080    4.4000  -15.5732 C   0  0  0  0  0  0  0  0  0  0  0  0
   -8.3273    4.2277  -16.9649 C   0  0  0  0  0  0  0  0  0  0  0  0
   -9.5903    3.7599  -17.6541 C   0  0  0  0  0  0  0  0  0  0  0  0
   -9.7889    3.9746  -19.1350 C   0  0  0  0  0  0  0  0  0  0  0  0
   -9.5306    2.5946  -18.6112 C   0  0  0  0  0  0  0  0  0  0  0  0
   -7.2714    4.5392  -17.7513 N   0  0  0  0  0  0  0  0  0  0  0  0
   -6.2183    5.0650  -17.1135 C   0  0  0  0  0  0  0  0  0  0  0  0
   -6.0902    5.2879  -15.7572 C   0  0  0  0  0  0  0  0  0  0  0  0
   -4.8138    5.8788  -15.6298 C   0  0  0  0  0  0  0  0  0  0  0  0
   -4.1875    6.0355  -16.8028 N   0  0  0  0  0  0  0  0  0  0  0  0
   -5.0737    5.5396  -17.7021 N   0  0  0  0  0  0  0  0  0  0  0  0
   -4.8760    5.5901  -19.1495 C   0  0  0  0  0  0  0  0  0  0  0  0
   -3.5847    6.2182  -19.5908 C   0  0  0  0  0  0  0  0  0  0  0  0
   -3.4659    7.5654  -20.0766 C   0  0  0  0  0  0  0  0  0  0  0  0
   -2.1774    7.8916  -20.4353 C   0  0  0  0  0  0  0  0  0  0  0  0
   -1.0994    6.5887  -20.2024 S   0  0  0  0  0  0  0  0  0  0  0  0
   -2.3534    5.5851  -19.6131 C   0  0  0  0  0  0  0  0  0  0  0  0
   -8.6440    3.1178  -10.6289 C   0  0  0  0  0  0  0  0  0  0  0  0
   -8.7830    3.0833   -9.2474 C   0  0  0  0  0  0  0  0  0  0  0  0
  1  2  2  0
  2  3  1  0
  3  4  1  0
  4  5  1  0
  5  6  2  0
  6  7  1  0
  7  8  1  0
  7  9  2  0
  9 10  1  0
 10 11  1  0
 11 12  2  0
 11 13  1  0
 13 14  2  0
 14 15  1  0
 15 16  1  0
 16 17  1  0
 17 18  1  0
 15 19  2  0
 19 20  1  0
 20 21  2  0
 21 22  1  0
 22 23  2  0
 23 24  1  0
 24 25  1  0
 25 26  1  0
 26 27  1  0
 27 28  2  0
 28 29  1  0
 29 30  1  0
  9 31  1  0
 31 32  2  0
 32  2  1  0
 32  5  1  0
 21 13  1  0
 30 26  2  0
 18 16  1  0
 24 20  1  0
M  END
>  <name>  (644) 
P125457

>  <alias>  (644) 
None

>  <smina_score_min>  (644) 
-8.882

>  <exports>  (644) 
['/opt/xchem-fragalysis-2/maxwin/BulkDock/OUTPUTS/openbind_xx01zvns2b_c2_elabs_1LOUTNY.sdf', '/opt/xchem-fragalysis-2/maxwin/BulkDock/OUTPUTS/openbind_xx01zvns2b_c2_elabs_1LSYIIV.sdf']

>  <tags>  (644) 
syndirella_placed,openbind_xx01zvns2b_c2_elabs,openbind_xx01zvns2b_c2_elabs_scored_6.2plus,syndirella_product,openbind_xx01zvns2b_c2_elabs_scored,openbind_xx01zvns2b_c2_elabs_scored_top80percent,BulkDock Fragalysis export

>  <subsites>  (644) 
1 - Z4590/B/203/1

>  <smiles>  (644) 
O=C1NCc2cc(F)c(NC(=O)c3cc(C4CC4)nc4c3cnn4Cc3ccsc3)cc21

>  <HIPPO Pose ID>  (644) 
125457

>  <energy_score>  (644) 
-40.92642

>  <inchikey>  (644) 
LWFKZLPSGXJYPI-UHFFFAOYSA-N

>  <gnina_score_min>  (644) 
6.465

>  <gnina_score>  (644) 
6.561

>  <ref_mols>  (644) 
Z3559a

>  <HIPPO Compound ID>  (644) 
179161

>  <distance_score>  (644) 
0.312756

>  <rmsd(smina/fragmenstein)>  (644) 
0.494

>  <ref_pdb>  (644) 
Z3559a

>  <inspiration_score>  (644) 
None

$$$$
P125458
     RDKit          3D

 32 37  0  0  0  0  0  0  0  0999 V2000
  -10.1260    2.1882   -6.1105 C   0  0  0  0  0  0  0  0  0  0  0  0
   -9.3290    2.6846   -7.2023 N   0  0  0  0  0  0  0  0  0  0  0  0
   -8.6525    3.9593   -7.1431 C   0  0  0  0  0  0  0  0  0  0  0  0
   -8.2703    4.1928   -8.5646 C   0  0  0  0  0  0  0  0  0  0  0  0
   -7.6390    5.2755   -9.1403 C   0  0  0  0  0  0  0  0  0  0  0  0
   -7.4517    5.2645  -10.5277 C   0  0  0  0  0  0  0  0  0  0  0  0
   -7.8914    4.1860  -11.3219 C   0  0  0  0  0  0  0  0  0  0  0  0
   -7.7302    4.2208  -12.7072 N   0  0  0  0  0  0  0  0  0  0  0  0
   -6.9537    5.2157  -13.6047 C   0  0  0  0  0  0  0  0  0  0  0  0
   -6.3925    6.2039  -13.3309 O   0  0  0  0  0  0  0  0  0  0  0  0
   -7.0291    4.8674  -15.0491 C   0  0  0  0  0  0  0  0  0  0  0  0
   -8.1889    4.3484  -15.6437 C   0  0  0  0  0  0  0  0  0  0  0  0
   -8.2804    4.2347  -17.0367 C   0  0  0  0  0  0  0  0  0  0  0  0
   -9.5659    3.7573  -17.6726 C   0  0  0  0  0  0  0  0  0  0  0  0
   -9.8348    3.9732  -19.1413 C   0  0  0  0  0  0  0  0  0  0  0  0
   -9.5279    2.5962  -18.6355 C   0  0  0  0  0  0  0  0  0  0  0  0
   -7.2824    4.6195  -17.8636 N   0  0  0  0  0  0  0  0  0  0  0  0
   -6.1921    5.1103  -17.2611 C   0  0  0  0  0  0  0  0  0  0  0  0
   -5.9844    5.2534  -15.9031 C   0  0  0  0  0  0  0  0  0  0  0  0
   -4.7064    5.8471  -15.8133 C   0  0  0  0  0  0  0  0  0  0  0  0
   -4.1702    6.1261  -17.0088 N   0  0  0  0  0  0  0  0  0  0  0  0
   -5.1152    5.6888  -17.8846 N   0  0  0  0  0  0  0  0  0  0  0  0
   -5.1516    6.2149  -19.2422 C   0  0  0  0  0  0  0  0  0  0  0  0
   -4.3395    5.4563  -20.2368 C   0  0  0  0  0  0  0  0  0  0  0  0
   -4.8943    4.5738  -21.2240 C   0  0  0  0  0  0  0  0  0  0  0  0
   -3.9481    4.0959  -22.1012 C   0  0  0  0  0  0  0  0  0  0  0  0
   -2.3938    4.7095  -21.7532 S   0  0  0  0  0  0  0  0  0  0  0  0
   -2.9708    5.5699  -20.3960 C   0  0  0  0  0  0  0  0  0  0  0  0
   -8.5253    3.0934  -10.7308 C   0  0  0  0  0  0  0  0  0  0  0  0
   -8.6950    3.1268   -9.3567 C   0  0  0  0  0  0  0  0  0  0  0  0
   -9.4038    2.1799   -8.4889 C   0  0  0  0  0  0  0  0  0  0  0  0
  -10.0048    1.2020   -8.8819 O   0  0  0  0  0  0  0  0  0  0  0  0
  1  2  1  0
  2  3  1  0
  3  4  1  0
  4  5  2  0
  5  6  1  0
  6  7  2  0
  7  8  1  0
  8  9  1  0
  9 10  2  0
  9 11  1  0
 11 12  2  0
 12 13  1  0
 13 14  1  0
 14 15  1  0
 15 16  1  0
 13 17  2  0
 17 18  1  0
 18 19  2  0
 19 20  1  0
 20 21  2  0
 21 22  1  0
 22 23  1  0
 23 24  1  0
 24 25  1  0
 25 26  2  0
 26 27  1  0
 27 28  1  0
  7 29  1  0
 29 30  2  0
 30 31  1  0
 31 32  2  0
 31  2  1  0
 30  4  1  0
 19 11  1  0
 28 24  2  0
 16 14  1  0
 22 18  1  0
M  END
>  <name>  (645) 
P125458

>  <alias>  (645) 
None

>  <smina_score_min>  (645) 
-9.335

>  <exports>  (645) 
['/opt/xchem-fragalysis-2/maxwin/BulkDock/OUTPUTS/openbind_xx01zvns2b_c2_elabs_1LOUTNY.sdf', '/opt/xchem-fragalysis-2/maxwin/BulkDock/OUTPUTS/openbind_xx01zvns2b_c2_elabs_1LSYIIV.sdf']

>  <tags>  (645) 
syndirella_placed,openbind_xx01zvns2b_c2_elabs,openbind_xx01zvns2b_c2_elabs_scored_6.2plus,syndirella_product,openbind_xx01zvns2b_c2_elabs_scored,openbind_xx01zvns2b_c2_elabs_scored_top80percent,BulkDock Fragalysis export

>  <subsites>  (645) 
1 - Z4590/B/203/1

>  <smiles>  (645) 
CN1Cc2ccc(NC(=O)c3cc(C4CC4)nc4c3cnn4Cc3ccsc3)cc2C1=O

>  <HIPPO Pose ID>  (645) 
125458

>  <energy_score>  (645) 
-48.472181

>  <inchikey>  (645) 
QWAQQGKUXHYKRQ-UHFFFAOYSA-N

>  <gnina_score_min>  (645) 
6.334

>  <gnina_score>  (645) 
6.431

>  <ref_mols>  (645) 
Z3559a

>  <HIPPO Compound ID>  (645) 
179075

>  <distance_score>  (645) 
0.414467

>  <rmsd(smina/fragmenstein)>  (645) 
0.28

>  <ref_pdb>  (645) 
Z3559a

>  <inspiration_score>  (645) 
None

$$$$
P125459
     RDKit          3D

 32 37  0  0  0  0  0  0  0  0999 V2000
  -10.6947    1.8828   -5.7223 C   0  0  0  0  0  0  0  0  0  0  0  0
   -9.3665    2.5660   -5.9653 C   0  0  0  0  0  0  0  0  0  0  0  0
   -9.3919    3.2989   -7.2146 N   0  0  0  0  0  0  0  0  0  0  0  0
   -8.3691    4.3478   -7.2517 C   0  0  0  0  0  0  0  0  0  0  0  0
   -8.0949    4.5166   -8.7030 C   0  0  0  0  0  0  0  0  0  0  0  0
   -7.4813    5.5700   -9.3403 C   0  0  0  0  0  0  0  0  0  0  0  0
   -7.3377    5.4884  -10.7201 C   0  0  0  0  0  0  0  0  0  0  0  0
   -7.7955    4.3665  -11.4350 C   0  0  0  0  0  0  0  0  0  0  0  0
   -7.6469    4.3326  -12.8165 N   0  0  0  0  0  0  0  0  0  0  0  0
   -6.9844    5.3440  -13.7803 C   0  0  0  0  0  0  0  0  0  0  0  0
   -6.5282    6.3997  -13.5740 O   0  0  0  0  0  0  0  0  0  0  0  0
   -7.0433    4.9111  -15.1907 C   0  0  0  0  0  0  0  0  0  0  0  0
   -8.2048    4.3690  -15.7538 C   0  0  0  0  0  0  0  0  0  0  0  0
   -8.2970    4.2059  -17.1384 C   0  0  0  0  0  0  0  0  0  0  0  0
   -9.5907    3.7309  -17.7519 C   0  0  0  0  0  0  0  0  0  0  0  0
   -9.5767    2.5382  -18.6729 C   0  0  0  0  0  0  0  0  0  0  0  0
   -9.8573    3.9042  -19.2249 C   0  0  0  0  0  0  0  0  0  0  0  0
   -7.2949    4.5486  -17.9773 N   0  0  0  0  0  0  0  0  0  0  0  0
   -6.2043    5.0660  -17.3994 C   0  0  0  0  0  0  0  0  0  0  0  0
   -5.9966    5.2642  -16.0508 C   0  0  0  0  0  0  0  0  0  0  0  0
   -4.7263    5.8734  -15.9793 C   0  0  0  0  0  0  0  0  0  0  0  0
   -4.1900    6.1081  -17.1838 N   0  0  0  0  0  0  0  0  0  0  0  0
   -5.1312    5.6266  -18.0442 N   0  0  0  0  0  0  0  0  0  0  0  0
   -5.1698    6.0839  -19.4272 C   0  0  0  0  0  0  0  0  0  0  0  0
   -4.2275    5.3860  -20.3508 C   0  0  0  0  0  0  0  0  0  0  0  0
   -2.7991    5.3887  -20.2328 C   0  0  0  0  0  0  0  0  0  0  0  0
   -2.1808    4.7592  -21.2887 C   0  0  0  0  0  0  0  0  0  0  0  0
   -3.3045    4.1610  -22.4271 S   0  0  0  0  0  0  0  0  0  0  0  0
   -4.6238    4.7153  -21.4959 C   0  0  0  0  0  0  0  0  0  0  0  0
   -8.4112    3.3001  -10.7733 C   0  0  0  0  0  0  0  0  0  0  0  0
   -8.5589    3.3979   -9.4002 C   0  0  0  0  0  0  0  0  0  0  0  0
   -9.1849    2.4518   -8.4191 C   0  0  0  0  0  0  0  0  0  0  0  0
  1  2  1  0
  2  3  1  0
  3  4  1  0
  4  5  1  0
  5  6  2  0
  6  7  1  0
  7  8  2  0
  8  9  1  0
  9 10  1  0
 10 11  2  0
 10 12  1  0
 12 13  2  0
 13 14  1  0
 14 15  1  0
 15 16  1  0
 16 17  1  0
 14 18  2  0
 18 19  1  0
 19 20  2  0
 20 21  1  0
 21 22  2  0
 22 23  1  0
 23 24  1  0
 24 25  1  0
 25 26  1  0
 26 27  2  0
 27 28  1  0
 28 29  1  0
  8 30  1  0
 30 31  2  0
 31 32  1  0
 32  3  1  0
 31  5  1  0
 20 12  1  0
 29 25  2  0
 17 15  1  0
 23 19  1  0
M  END
>  <name>  (646) 
P125459

>  <alias>  (646) 
None

>  <smina_score_min>  (646) 
-9.229

>  <exports>  (646) 
['/opt/xchem-fragalysis-2/maxwin/BulkDock/OUTPUTS/openbind_xx01zvns2b_c2_elabs_1LOUTNY.sdf', '/opt/xchem-fragalysis-2/maxwin/BulkDock/OUTPUTS/openbind_xx01zvns2b_c2_elabs_1LSYIIV.sdf']

>  <tags>  (646) 
syndirella_placed,openbind_xx01zvns2b_c2_elabs,openbind_xx01zvns2b_c2_elabs_scored_6.2plus,syndirella_product,openbind_xx01zvns2b_c2_elabs_scored,openbind_xx01zvns2b_c2_elabs_scored_top80percent,BulkDock Fragalysis export

>  <subsites>  (646) 
1 - Z4590/B/203/1

>  <smiles>  (646) 
CCN1Cc2ccc(NC(=O)c3cc(C4CC4)nc4c3cnn4Cc3ccsc3)cc2C1

>  <HIPPO Pose ID>  (646) 
125459

>  <energy_score>  (646) 
-41.246649

>  <inchikey>  (646) 
JXDQRXXYVKOCDW-UHFFFAOYSA-N

>  <gnina_score_min>  (646) 
6.597

>  <gnina_score>  (646) 
6.505

>  <ref_mols>  (646) 
Z3559a

>  <HIPPO Compound ID>  (646) 
179076

>  <distance_score>  (646) 
0.588659

>  <rmsd(smina/fragmenstein)>  (646) 
0.37

>  <ref_pdb>  (646) 
Z3559a

>  <inspiration_score>  (646) 
None

$$$$
P125460
     RDKit          3D

 32 36  0  0  0  0  0  0  0  0999 V2000
   -2.7403    5.1219  -21.1133 C   0  0  0  0  0  0  0  0  0  0  0  0
   -3.0308    5.3561  -19.6393 C   0  0  0  0  0  0  0  0  0  0  0  0
   -4.5319    5.5028  -19.3825 C   0  0  0  0  0  0  0  0  0  0  0  0
   -4.8858    5.5533  -17.9760 N   0  0  0  0  0  0  0  0  0  0  0  0
   -4.1335    6.2636  -17.1004 N   0  0  0  0  0  0  0  0  0  0  0  0
   -4.8264    6.1766  -15.9592 C   0  0  0  0  0  0  0  0  0  0  0  0
   -6.0218    5.4380  -16.0961 C   0  0  0  0  0  0  0  0  0  0  0  0
   -7.1376    5.0951  -15.3184 C   0  0  0  0  0  0  0  0  0  0  0  0
   -7.2697    5.7065  -13.9797 C   0  0  0  0  0  0  0  0  0  0  0  0
   -6.9894    6.8716  -13.9403 O   0  0  0  0  0  0  0  0  0  0  0  0
   -7.7167    4.8148  -12.9506 N   0  0  0  0  0  0  0  0  0  0  0  0
   -7.8733    5.0077  -11.5765 C   0  0  0  0  0  0  0  0  0  0  0  0
   -7.6879    6.2949  -11.0337 C   0  0  0  0  0  0  0  0  0  0  0  0
   -7.7882    6.5258   -9.6657 C   0  0  0  0  0  0  0  0  0  0  0  0
   -8.0712    5.4489   -8.8556 C   0  0  0  0  0  0  0  0  0  0  0  0
   -8.2817    4.1710   -9.3769 C   0  0  0  0  0  0  0  0  0  0  0  0
   -8.1916    3.9301  -10.7419 C   0  0  0  0  0  0  0  0  0  0  0  0
   -8.6212    3.2422   -8.2463 C   0  0  0  0  0  0  0  0  0  0  0  0
   -8.2325    4.0017   -7.0287 N   0  0  0  0  0  0  0  0  0  0  0  0
   -9.0090    3.6645   -5.8440 C   0  0  0  0  0  0  0  0  0  0  0  0
   -8.4925    4.4338   -4.6215 C   0  0  0  0  0  0  0  0  0  0  0  0
   -9.2251    4.0429   -3.3515 C   0  0  0  0  0  0  0  0  0  0  0  0
   -8.7824    4.8975   -2.2937 O   0  0  0  0  0  0  0  0  0  0  0  0
   -9.4054    4.5672   -1.0607 C   0  0  0  0  0  0  0  0  0  0  0  0
   -8.2281    5.4271   -7.3757 C   0  0  0  0  0  0  0  0  0  0  0  0
   -8.1740    4.3752  -15.9269 C   0  0  0  0  0  0  0  0  0  0  0  0
   -8.0705    4.0356  -17.2805 C   0  0  0  0  0  0  0  0  0  0  0  0
   -9.2038    3.3519  -18.0113 C   0  0  0  0  0  0  0  0  0  0  0  0
   -9.6176    3.9851  -19.3213 C   0  0  0  0  0  0  0  0  0  0  0  0
  -10.5707    3.9762  -18.1769 C   0  0  0  0  0  0  0  0  0  0  0  0
   -6.9855    4.3385  -18.0381 N   0  0  0  0  0  0  0  0  0  0  0  0
   -6.0269    5.0393  -17.4166 C   0  0  0  0  0  0  0  0  0  0  0  0
  1  2  1  0
  2  3  1  0
  3  4  1  0
  4  5  1  0
  5  6  2  0
  6  7  1  0
  7  8  2  0
  8  9  1  0
  9 10  2  0
  9 11  1  0
 11 12  1  0
 12 13  2  0
 13 14  1  0
 14 15  2  0
 15 16  1  0
 16 17  2  0
 16 18  1  0
 18 19  1  0
 19 20  1  0
 20 21  1  0
 21 22  1  0
 22 23  1  0
 23 24  1  0
 19 25  1  0
  8 26  1  0
 26 27  2  0
 27 28  1  0
 28 29  1  0
 29 30  1  0
 27 31  1  0
 31 32  2  0
 32  4  1  0
 32  7  1  0
 17 12  1  0
 30 28  1  0
 25 15  1  0
M  END
>  <name>  (647) 
P125460

>  <alias>  (647) 
None

>  <smina_score_min>  (647) 
-7.917

>  <exports>  (647) 
['/opt/xchem-fragalysis-2/maxwin/BulkDock/OUTPUTS/openbind_xx01zvns2b_c2_elabs_1LOUTNY.sdf', '/opt/xchem-fragalysis-2/maxwin/BulkDock/OUTPUTS/openbind_xx01zvns2b_c2_elabs_1LSYIIV.sdf']

>  <tags>  (647) 
syndirella_placed,openbind_xx01zvns2b_c2_elabs,openbind_xx01zvns2b_c2_elabs_scored_6.2plus,syndirella_product,openbind_xx01zvns2b_c2_elabs_scored,openbind_xx01zvns2b_c2_elabs_scored_top80percent,BulkDock Fragalysis export

>  <subsites>  (647) 
1 - Z4590/B/203/1

>  <smiles>  (647) 
CCCn1ncc2c(C(=O)Nc3ccc4c(c3)CN(CCCOC)C4)cc(C3CC3)nc21

>  <HIPPO Pose ID>  (647) 
125460

>  <energy_score>  (647) 
-54.378015

>  <inchikey>  (647) 
LJKGOZQLNOTFQV-UHFFFAOYSA-N

>  <gnina_score_min>  (647) 
6.724

>  <gnina_score>  (647) 
6.187

>  <ref_mols>  (647) 
Z3559a

>  <HIPPO Compound ID>  (647) 
179311

>  <distance_score>  (647) 
1.097774

>  <rmsd(smina/fragmenstein)>  (647) 
1.122

>  <ref_pdb>  (647) 
Z3559a

>  <inspiration_score>  (647) 
None

$$$$
P125461
     RDKit          3D

 32 37  0  0  0  0  0  0  0  0999 V2000
   -4.2467    6.2540  -14.1365 C   0  0  0  0  0  0  0  0  0  0  0  0
   -4.8425    5.8167  -15.4248 C   0  0  0  0  0  0  0  0  0  0  0  0
   -4.1046    5.8648  -16.5358 N   0  0  0  0  0  0  0  0  0  0  0  0
   -4.9206    5.4050  -17.5336 N   0  0  0  0  0  0  0  0  0  0  0  0
   -4.4281    5.3475  -18.8808 C   0  0  0  0  0  0  0  0  0  0  0  0
   -5.2796    5.1018  -19.9529 C   0  0  0  0  0  0  0  0  0  0  0  0
   -4.7416    5.0231  -21.2399 C   0  0  0  0  0  0  0  0  0  0  0  0
   -3.3737    5.1740  -21.4274 C   0  0  0  0  0  0  0  0  0  0  0  0
   -2.5907    5.4191  -20.3159 C   0  0  0  0  0  0  0  0  0  0  0  0
   -3.0876    5.5246  -19.0661 N   0  0  0  0  0  0  0  0  0  0  0  0
   -6.1674    5.0402  -17.0324 C   0  0  0  0  0  0  0  0  0  0  0  0
   -7.2127    4.5194  -17.7083 N   0  0  0  0  0  0  0  0  0  0  0  0
   -8.3280    4.2573  -16.9867 C   0  0  0  0  0  0  0  0  0  0  0  0
   -9.5619    3.7786  -17.7221 C   0  0  0  0  0  0  0  0  0  0  0  0
   -9.6948    3.9550  -19.2130 C   0  0  0  0  0  0  0  0  0  0  0  0
   -9.4736    2.5873  -18.6415 C   0  0  0  0  0  0  0  0  0  0  0  0
   -8.4010    4.4899  -15.6142 C   0  0  0  0  0  0  0  0  0  0  0  0
   -7.3068    5.0382  -14.9458 C   0  0  0  0  0  0  0  0  0  0  0  0
   -7.4296    5.4821  -13.5451 C   0  0  0  0  0  0  0  0  0  0  0  0
   -7.2231    6.6079  -13.3151 O   0  0  0  0  0  0  0  0  0  0  0  0
   -7.8653    4.3325  -12.6098 N   0  0  0  0  0  0  0  0  0  0  0  0
   -8.0399    4.3071  -11.2273 C   0  0  0  0  0  0  0  0  0  0  0  0
   -7.8021    5.4565  -10.4548 C   0  0  0  0  0  0  0  0  0  0  0  0
   -7.9832    5.4419   -9.0694 C   0  0  0  0  0  0  0  0  0  0  0  0
   -8.4028    4.2656   -8.4783 C   0  0  0  0  0  0  0  0  0  0  0  0
   -8.6356    3.1231   -9.2377 C   0  0  0  0  0  0  0  0  0  0  0  0
   -8.4583    3.1228  -10.6143 C   0  0  0  0  0  0  0  0  0  0  0  0
   -9.1063    2.0195   -8.3433 C   0  0  0  0  0  0  0  0  0  0  0  0
   -9.0018    2.5539   -6.9665 N   0  0  0  0  0  0  0  0  0  0  0  0
  -10.1413    2.2243   -6.1333 C   0  0  0  0  0  0  0  0  0  0  0  0
   -8.7139    3.9916   -7.0436 C   0  0  0  0  0  0  0  0  0  0  0  0
   -6.1391    5.3102  -15.6716 C   0  0  0  0  0  0  0  0  0  0  0  0
  1  2  1  0
  2  3  2  0
  3  4  1  0
  4  5  1  0
  5  6  2  0
  6  7  1  0
  7  8  2  0
  8  9  1  0
  9 10  2  0
  4 11  1  0
 11 12  2  0
 12 13  1  0
 13 14  1  0
 14 15  1  0
 15 16  1  0
 13 17  2  0
 17 18  1  0
 18 19  1  0
 19 20  2  0
 19 21  1  0
 21 22  1  0
 22 23  2  0
 23 24  1  0
 24 25  2  0
 25 26  1  0
 26 27  2  0
 26 28  1  0
 28 29  1  0
 29 30  1  0
 29 31  1  0
 18 32  2  0
 32  2  1  0
 10  5  1  0
 32 11  1  0
 16 14  1  0
 27 22  1  0
 31 25  1  0
M  END
>  <name>  (648) 
P125461

>  <alias>  (648) 
None

>  <smina_score_min>  (648) 
-9.76

>  <exports>  (648) 
['/opt/xchem-fragalysis-2/maxwin/BulkDock/OUTPUTS/openbind_xx01zvns2b_c2_elabs_1LOUTNY.sdf', '/opt/xchem-fragalysis-2/maxwin/BulkDock/OUTPUTS/openbind_xx01zvns2b_c2_elabs_1LSYIIV.sdf']

>  <tags>  (648) 
syndirella_placed,openbind_xx01zvns2b_c2_elabs,openbind_xx01zvns2b_c2_elabs_scored_6.2plus,syndirella_product,openbind_xx01zvns2b_c2_elabs_scored,openbind_xx01zvns2b_c2_elabs_scored_top80percent,BulkDock Fragalysis export

>  <subsites>  (648) 
1 - Z4590/B/203/1

>  <smiles>  (648) 
Cc1nn(-c2ccccn2)c2nc(C3CC3)cc(C(=O)Nc3ccc4c(c3)CN(C)C4)c12

>  <HIPPO Pose ID>  (648) 
125461

>  <energy_score>  (648) 
-29.760417

>  <inchikey>  (648) 
LNBDUNWFAWIKSR-UHFFFAOYSA-N

>  <gnina_score_min>  (648) 
6.482

>  <gnina_score>  (648) 
6.537

>  <ref_mols>  (648) 
Z3559a

>  <HIPPO Compound ID>  (648) 
179120

>  <distance_score>  (648) 
0.399446

>  <rmsd(smina/fragmenstein)>  (648) 
0.861

>  <ref_pdb>  (648) 
Z3559a

>  <inspiration_score>  (648) 
None

$$$$
P125462
     RDKit          3D

 32 37  0  0  0  0  0  0  0  0999 V2000
   -4.1408    6.2280  -14.2052 C   0  0  0  0  0  0  0  0  0  0  0  0
   -4.7815    5.8038  -15.4765 C   0  0  0  0  0  0  0  0  0  0  0  0
   -4.0746    5.8584  -16.6090 N   0  0  0  0  0  0  0  0  0  0  0  0
   -4.9223    5.4093  -17.5866 N   0  0  0  0  0  0  0  0  0  0  0  0
   -4.4720    5.3680  -18.9523 C   0  0  0  0  0  0  0  0  0  0  0  0
   -5.3322    5.0110  -19.9857 C   0  0  0  0  0  0  0  0  0  0  0  0
   -4.8404    4.9561  -21.2919 C   0  0  0  0  0  0  0  0  0  0  0  0
   -3.5121    5.2637  -21.5438 C   0  0  0  0  0  0  0  0  0  0  0  0
   -2.7204    5.6226  -20.4714 C   0  0  0  0  0  0  0  0  0  0  0  0
   -3.1621    5.6779  -19.1970 N   0  0  0  0  0  0  0  0  0  0  0  0
   -6.1525    5.0423  -17.0477 C   0  0  0  0  0  0  0  0  0  0  0  0
   -7.2158    4.5332  -17.6991 N   0  0  0  0  0  0  0  0  0  0  0  0
   -8.3146    4.2676  -16.9598 C   0  0  0  0  0  0  0  0  0  0  0  0
   -9.5576    3.7845  -17.6757 C   0  0  0  0  0  0  0  0  0  0  0  0
   -9.4682    2.6214  -18.6319 C   0  0  0  0  0  0  0  0  0  0  0  0
   -9.7362    3.9992  -19.1571 C   0  0  0  0  0  0  0  0  0  0  0  0
   -8.3563    4.4956  -15.5854 C   0  0  0  0  0  0  0  0  0  0  0  0
   -7.2440    5.0334  -14.9327 C   0  0  0  0  0  0  0  0  0  0  0  0
   -7.3299    5.4419  -13.5128 C   0  0  0  0  0  0  0  0  0  0  0  0
   -6.9833    6.5221  -13.2369 O   0  0  0  0  0  0  0  0  0  0  0  0
   -7.8964    4.3124  -12.6209 N   0  0  0  0  0  0  0  0  0  0  0  0
   -8.0598    4.2465  -11.2364 C   0  0  0  0  0  0  0  0  0  0  0  0
   -7.7902    5.3669  -10.4261 C   0  0  0  0  0  0  0  0  0  0  0  0
   -7.9211    5.2976   -9.0357 C   0  0  0  0  0  0  0  0  0  0  0  0
   -8.3317    4.0961   -8.4962 C   0  0  0  0  0  0  0  0  0  0  0  0
   -8.6170    2.9815   -9.2806 C   0  0  0  0  0  0  0  0  0  0  0  0
   -8.4833    3.0409  -10.6602 C   0  0  0  0  0  0  0  0  0  0  0  0
   -9.0081    1.8406   -8.4016 C   0  0  0  0  0  0  0  0  0  0  0  0
   -9.0350    2.4431   -7.0845 N   0  0  0  0  0  0  0  0  0  0  0  0
   -8.5311    3.7263   -7.0892 C   0  0  0  0  0  0  0  0  0  0  0  0
   -8.2687    4.4247   -6.1281 O   0  0  0  0  0  0  0  0  0  0  0  0
   -6.0903    5.3065  -15.6866 C   0  0  0  0  0  0  0  0  0  0  0  0
  1  2  1  0
  2  3  2  0
  3  4  1  0
  4  5  1  0
  5  6  2  0
  6  7  1  0
  7  8  2  0
  8  9  1  0
  9 10  2  0
  4 11  1  0
 11 12  2  0
 12 13  1  0
 13 14  1  0
 14 15  1  0
 15 16  1  0
 13 17  2  0
 17 18  1  0
 18 19  1  0
 19 20  2  0
 19 21  1  0
 21 22  1  0
 22 23  2  0
 23 24  1  0
 24 25  2  0
 25 26  1  0
 26 27  2  0
 26 28  1  0
 28 29  1  0
 29 30  1  0
 30 31  2  0
 18 32  2  0
 32  2  1  0
 10  5  1  0
 32 11  1  0
 16 14  1  0
 27 22  1  0
 30 25  1  0
M  END
>  <name>  (649) 
P125462

>  <alias>  (649) 
None

>  <smina_score_min>  (649) 
-9.981

>  <exports>  (649) 
['/opt/xchem-fragalysis-2/maxwin/BulkDock/OUTPUTS/openbind_xx01zvns2b_c2_elabs_1LOUTNY.sdf', '/opt/xchem-fragalysis-2/maxwin/BulkDock/OUTPUTS/openbind_xx01zvns2b_c2_elabs_1LSYIIV.sdf']

>  <tags>  (649) 
syndirella_placed,openbind_xx01zvns2b_c2_elabs,openbind_xx01zvns2b_c2_elabs_scored_6.2plus,syndirella_product,openbind_xx01zvns2b_c2_elabs_scored,openbind_xx01zvns2b_c2_elabs_scored_top80percent,BulkDock Fragalysis export

>  <subsites>  (649) 
1 - Z4590/B/203/1

>  <smiles>  (649) 
Cc1nn(-c2ccccn2)c2nc(C3CC3)cc(C(=O)Nc3ccc4c(c3)CNC4=O)c12

>  <HIPPO Pose ID>  (649) 
125462

>  <energy_score>  (649) 
-56.597391

>  <inchikey>  (649) 
UCFXPTAJWCNJGU-UHFFFAOYSA-N

>  <gnina_score_min>  (649) 
6.466

>  <gnina_score>  (649) 
6.545

>  <ref_mols>  (649) 
Z3559a

>  <HIPPO Compound ID>  (649) 
179139

>  <distance_score>  (649) 
0.345941

>  <rmsd(smina/fragmenstein)>  (649) 
1.046

>  <ref_pdb>  (649) 
Z3559a

>  <inspiration_score>  (649) 
None

$$$$
P125463
     RDKit          3D

 32 37  0  0  0  0  0  0  0  0999 V2000
   -4.1466    6.1198  -14.0856 C   0  0  0  0  0  0  0  0  0  0  0  0
   -4.7782    5.7361  -15.3748 C   0  0  0  0  0  0  0  0  0  0  0  0
   -4.0506    5.8020  -16.4941 N   0  0  0  0  0  0  0  0  0  0  0  0
   -4.8911    5.3766  -17.4882 N   0  0  0  0  0  0  0  0  0  0  0  0
   -4.4371    5.3422  -18.8464 C   0  0  0  0  0  0  0  0  0  0  0  0
   -3.0950    5.6267  -19.1126 C   0  0  0  0  0  0  0  0  0  0  0  0
   -2.6384    5.5758  -20.4292 C   0  0  0  0  0  0  0  0  0  0  0  0
   -3.5298    5.2699  -21.4483 C   0  0  0  0  0  0  0  0  0  0  0  0
   -4.8441    5.0116  -21.1050 C   0  0  0  0  0  0  0  0  0  0  0  0
   -5.3053    5.0227  -19.8363 N   0  0  0  0  0  0  0  0  0  0  0  0
   -6.1360    5.0186  -16.9821 C   0  0  0  0  0  0  0  0  0  0  0  0
   -7.1925    4.5269  -17.6577 N   0  0  0  0  0  0  0  0  0  0  0  0
   -8.3061    4.2643  -16.9395 C   0  0  0  0  0  0  0  0  0  0  0  0
   -9.5425    3.8010  -17.6842 C   0  0  0  0  0  0  0  0  0  0  0  0
   -9.4624    2.6146  -18.6123 C   0  0  0  0  0  0  0  0  0  0  0  0
   -9.6572    3.9885  -19.1768 C   0  0  0  0  0  0  0  0  0  0  0  0
   -8.3695    4.4765  -15.5614 C   0  0  0  0  0  0  0  0  0  0  0  0
   -7.2632    4.9937  -14.8828 C   0  0  0  0  0  0  0  0  0  0  0  0
   -7.3536    5.3941  -13.4594 C   0  0  0  0  0  0  0  0  0  0  0  0
   -6.9462    6.4525  -13.1791 O   0  0  0  0  0  0  0  0  0  0  0  0
   -7.9698    4.2883  -12.5687 N   0  0  0  0  0  0  0  0  0  0  0  0
   -8.1205    4.2197  -11.1815 C   0  0  0  0  0  0  0  0  0  0  0  0
   -7.7156    5.3006  -10.3713 C   0  0  0  0  0  0  0  0  0  0  0  0
   -7.8290    5.2537   -8.9763 C   0  0  0  0  0  0  0  0  0  0  0  0
   -8.3708    4.1191   -8.4082 C   0  0  0  0  0  0  0  0  0  0  0  0
   -8.7964    3.0658   -9.2179 C   0  0  0  0  0  0  0  0  0  0  0  0
   -8.6705    3.0764  -10.5983 C   0  0  0  0  0  0  0  0  0  0  0  0
   -9.3959    2.0549   -8.3375 C   0  0  0  0  0  0  0  0  0  0  0  0
   -9.9425    1.0302   -8.6837 O   0  0  0  0  0  0  0  0  0  0  0  0
   -9.2740    2.5198   -7.0450 N   0  0  0  0  0  0  0  0  0  0  0  0
   -8.6167    3.7942   -6.9742 C   0  0  0  0  0  0  0  0  0  0  0  0
   -6.0932    5.2628  -15.6162 C   0  0  0  0  0  0  0  0  0  0  0  0
  1  2  1  0
  2  3  2  0
  3  4  1  0
  4  5  1  0
  5  6  2  0
  6  7  1  0
  7  8  2  0
  8  9  1  0
  9 10  2  0
  4 11  1  0
 11 12  2  0
 12 13  1  0
 13 14  1  0
 14 15  1  0
 15 16  1  0
 13 17  2  0
 17 18  1  0
 18 19  1  0
 19 20  2  0
 19 21  1  0
 21 22  1  0
 22 23  2  0
 23 24  1  0
 24 25  2  0
 25 26  1  0
 26 27  2  0
 26 28  1  0
 28 29  2  0
 28 30  1  0
 30 31  1  0
 18 32  2  0
 32  2  1  0
 10  5  1  0
 32 11  1  0
 16 14  1  0
 27 22  1  0
 31 25  1  0
M  END
>  <name>  (650) 
P125463

>  <alias>  (650) 
None

>  <smina_score_min>  (650) 
-9.859

>  <exports>  (650) 
['/opt/xchem-fragalysis-2/maxwin/BulkDock/OUTPUTS/openbind_xx01zvns2b_c2_elabs_1LOUTNY.sdf', '/opt/xchem-fragalysis-2/maxwin/BulkDock/OUTPUTS/openbind_xx01zvns2b_c2_elabs_1LSYIIV.sdf']

>  <tags>  (650) 
syndirella_placed,openbind_xx01zvns2b_c2_elabs,openbind_xx01zvns2b_c2_elabs_scored_6.2plus,syndirella_product,openbind_xx01zvns2b_c2_elabs_scored,openbind_xx01zvns2b_c2_elabs_scored_top80percent,BulkDock Fragalysis export

>  <subsites>  (650) 
1 - Z4590/B/203/1

>  <smiles>  (650) 
Cc1nn(-c2ccccn2)c2nc(C3CC3)cc(C(=O)Nc3ccc4c(c3)C(=O)NC4)c12

>  <HIPPO Pose ID>  (650) 
125463

>  <energy_score>  (650) 
-57.388526

>  <inchikey>  (650) 
VKQLCJWNFWCNHE-UHFFFAOYSA-N

>  <gnina_score_min>  (650) 
6.339

>  <gnina_score>  (650) 
6.528

>  <ref_mols>  (650) 
Z3559a

>  <HIPPO Compound ID>  (650) 
179138

>  <distance_score>  (650) 
0.371084

>  <rmsd(smina/fragmenstein)>  (650) 
0.67

>  <ref_pdb>  (650) 
Z3559a

>  <inspiration_score>  (650) 
None

$$$$
P125464
     RDKit          3D

 32 36  0  0  0  0  0  0  0  0999 V2000
  -10.8719    2.8422   -5.4269 C   0  0  0  0  0  0  0  0  0  0  0  0
   -9.6527    2.2140   -6.0732 C   0  0  0  0  0  0  0  0  0  0  0  0
   -9.2717    2.8767   -7.2900 N   0  0  0  0  0  0  0  0  0  0  0  0
   -9.1052    2.1571   -8.5444 C   0  0  0  0  0  0  0  0  0  0  0  0
   -8.5718    3.2245   -9.4409 C   0  0  0  0  0  0  0  0  0  0  0  0
   -8.3259    3.2071  -10.8019 C   0  0  0  0  0  0  0  0  0  0  0  0
   -7.8626    4.3882  -11.3946 C   0  0  0  0  0  0  0  0  0  0  0  0
   -7.6016    4.4095  -12.7589 N   0  0  0  0  0  0  0  0  0  0  0  0
   -7.2853    5.5899  -13.7002 C   0  0  0  0  0  0  0  0  0  0  0  0
   -7.1183    6.7203  -13.4658 O   0  0  0  0  0  0  0  0  0  0  0  0
   -7.1343    5.1438  -15.0926 C   0  0  0  0  0  0  0  0  0  0  0  0
   -8.1540    4.4510  -15.7441 C   0  0  0  0  0  0  0  0  0  0  0  0
   -8.0090    4.1357  -17.0932 C   0  0  0  0  0  0  0  0  0  0  0  0
   -9.0372    3.2570  -17.7536 C   0  0  0  0  0  0  0  0  0  0  0  0
   -9.0151    3.0484  -19.2426 C   0  0  0  0  0  0  0  0  0  0  0  0
  -10.1368    3.8200  -18.6153 C   0  0  0  0  0  0  0  0  0  0  0  0
   -6.9442    4.5350  -17.8270 N   0  0  0  0  0  0  0  0  0  0  0  0
   -5.9846    5.2012  -17.1637 C   0  0  0  0  0  0  0  0  0  0  0  0
   -5.9885    5.5038  -15.8127 C   0  0  0  0  0  0  0  0  0  0  0  0
   -4.7454    6.1408  -15.5782 C   0  0  0  0  0  0  0  0  0  0  0  0
   -4.1846    6.6494  -14.3010 C   0  0  0  0  0  0  0  0  0  0  0  0
   -4.0369    6.2749  -16.7043 N   0  0  0  0  0  0  0  0  0  0  0  0
   -4.8293    5.7475  -17.6729 N   0  0  0  0  0  0  0  0  0  0  0  0
   -4.4200    5.9450  -19.0744 C   0  0  0  0  0  0  0  0  0  0  0  0
   -4.5180    7.4517  -19.4055 C   0  0  0  0  0  0  0  0  0  0  0  0
   -5.2953    5.2020  -20.0921 C   0  0  0  0  0  0  0  0  0  0  0  0
   -2.9573    5.4910  -19.2660 C   0  0  0  0  0  0  0  0  0  0  0  0
   -7.6410    5.5491  -10.6267 C   0  0  0  0  0  0  0  0  0  0  0  0
   -7.8704    5.5536   -9.2554 C   0  0  0  0  0  0  0  0  0  0  0  0
   -8.3325    4.3824   -8.7002 C   0  0  0  0  0  0  0  0  0  0  0  0
   -8.7126    4.1364   -7.3125 C   0  0  0  0  0  0  0  0  0  0  0  0
   -8.5612    4.9286   -6.4008 O   0  0  0  0  0  0  0  0  0  0  0  0
  1  2  1  0
  2  3  1  0
  3  4  1  0
  4  5  1  0
  5  6  2  0
  6  7  1  0
  7  8  1  0
  8  9  1  0
  9 10  2  0
  9 11  1  0
 11 12  2  0
 12 13  1  0
 13 14  1  0
 14 15  1  0
 15 16  1  0
 13 17  2  0
 17 18  1  0
 18 19  2  0
 19 20  1  0
 20 21  1  0
 20 22  2  0
 22 23  1  0
 23 24  1  0
 24 25  1  0
 24 26  1  0
 24 27  1  0
  7 28  2  0
 28 29  1  0
 29 30  2  0
 30 31  1  0
 31 32  2  0
 31  3  1  0
 30  5  1  0
 19 11  1  0
 16 14  1  0
 23 18  1  0
M  END
>  <name>  (651) 
P125464

>  <alias>  (651) 
None

>  <smina_score_min>  (651) 
-9.666

>  <exports>  (651) 
['/opt/xchem-fragalysis-2/maxwin/BulkDock/OUTPUTS/openbind_xx01zvns2b_c2_elabs_1LOUTNY.sdf', '/opt/xchem-fragalysis-2/maxwin/BulkDock/OUTPUTS/openbind_xx01zvns2b_c2_elabs_1LSYIIV.sdf']

>  <tags>  (651) 
syndirella_placed,openbind_xx01zvns2b_c2_elabs,openbind_xx01zvns2b_c2_elabs_scored_6.2plus,syndirella_product,openbind_xx01zvns2b_c2_elabs_scored,openbind_xx01zvns2b_c2_elabs_scored_top80percent,BulkDock Fragalysis export

>  <subsites>  (651) 
1 - Z4590/B/203/1

>  <smiles>  (651) 
CCN1Cc2cc(NC(=O)c3cc(C4CC4)nc4c3c(C)nn4C(C)(C)C)ccc2C1=O

>  <HIPPO Pose ID>  (651) 
125464

>  <energy_score>  (651) 
-40.187201

>  <inchikey>  (651) 
WGTLNFNMSUGXLS-UHFFFAOYSA-N

>  <gnina_score_min>  (651) 
6.702

>  <gnina_score>  (651) 
6.482

>  <ref_mols>  (651) 
Z3559a

>  <HIPPO Compound ID>  (651) 
179428

>  <distance_score>  (651) 
0.599956

>  <rmsd(smina/fragmenstein)>  (651) 
0.748

>  <ref_pdb>  (651) 
Z3559a

>  <inspiration_score>  (651) 
None

$$$$
P125465
     RDKit          3D

 32 36  0  0  0  0  0  0  0  0999 V2000
   -4.4459    7.9498  -19.7207 C   0  0  0  0  0  0  0  0  0  0  0  0
   -5.2470    6.7111  -20.0922 C   0  0  0  0  0  0  0  0  0  0  0  0
   -4.7552    5.4373  -19.4081 C   0  0  0  0  0  0  0  0  0  0  0  0
   -5.0100    5.4176  -17.9833 N   0  0  0  0  0  0  0  0  0  0  0  0
   -4.0793    5.8835  -17.1154 N   0  0  0  0  0  0  0  0  0  0  0  0
   -4.7020    5.8018  -15.9330 C   0  0  0  0  0  0  0  0  0  0  0  0
   -5.9997    5.2549  -16.0333 C   0  0  0  0  0  0  0  0  0  0  0  0
   -7.0817    4.9603  -15.1977 C   0  0  0  0  0  0  0  0  0  0  0  0
   -7.0199    5.3793  -13.7882 C   0  0  0  0  0  0  0  0  0  0  0  0
   -6.4921    6.3971  -13.5638 O   0  0  0  0  0  0  0  0  0  0  0  0
   -7.6680    4.3534  -12.8293 N   0  0  0  0  0  0  0  0  0  0  0  0
   -7.8780    4.4086  -11.4568 C   0  0  0  0  0  0  0  0  0  0  0  0
   -7.4960    5.5765  -10.7723 C   0  0  0  0  0  0  0  0  0  0  0  0
   -7.6345    5.6784   -9.3993 C   0  0  0  0  0  0  0  0  0  0  0  0
   -8.1713    4.5981   -8.7400 C   0  0  0  0  0  0  0  0  0  0  0  0
   -8.5830    3.4369   -9.3974 C   0  0  0  0  0  0  0  0  0  0  0  0
   -8.4357    3.3211  -10.7706 C   0  0  0  0  0  0  0  0  0  0  0  0
   -9.1309    2.4806   -8.3724 C   0  0  0  0  0  0  0  0  0  0  0  0
   -9.3120    3.3313   -7.1648 N   0  0  0  0  0  0  0  0  0  0  0  0
   -9.2109    2.6242   -5.8756 C   0  0  0  0  0  0  0  0  0  0  0  0
   -8.8356    3.4828   -4.6350 C   0  0  0  0  0  0  0  0  0  0  0  0
   -7.4883    3.7065   -4.5960 F   0  0  0  0  0  0  0  0  0  0  0  0
   -9.1620    2.9276   -3.4524 F   0  0  0  0  0  0  0  0  0  0  0  0
   -9.4341    4.7001   -4.6571 F   0  0  0  0  0  0  0  0  0  0  0  0
   -8.3697    4.4485   -7.2808 C   0  0  0  0  0  0  0  0  0  0  0  0
   -8.2378    4.4273  -15.7728 C   0  0  0  0  0  0  0  0  0  0  0  0
   -8.2892    4.2134  -17.1533 C   0  0  0  0  0  0  0  0  0  0  0  0
   -9.5798    3.7459  -17.7823 C   0  0  0  0  0  0  0  0  0  0  0  0
   -9.8128    3.8968  -19.2628 C   0  0  0  0  0  0  0  0  0  0  0  0
   -9.5718    2.5360  -18.6800 C   0  0  0  0  0  0  0  0  0  0  0  0
   -7.2439    4.4790  -17.9742 N   0  0  0  0  0  0  0  0  0  0  0  0
   -6.1611    4.9958  -17.3776 C   0  0  0  0  0  0  0  0  0  0  0  0
  1  2  1  0
  2  3  1  0
  3  4  1  0
  4  5  1  0
  5  6  2  0
  6  7  1  0
  7  8  2  0
  8  9  1  0
  9 10  2  0
  9 11  1  0
 11 12  1  0
 12 13  2  0
 13 14  1  0
 14 15  2  0
 15 16  1  0
 16 17  2  0
 16 18  1  0
 18 19  1  0
 19 20  1  0
 20 21  1  0
 21 22  1  0
 21 23  1  0
 21 24  1  0
 19 25  1  0
  8 26  1  0
 26 27  2  0
 27 28  1  0
 28 29  1  0
 29 30  1  0
 27 31  1  0
 31 32  2  0
 32  4  1  0
 32  7  1  0
 17 12  1  0
 30 28  1  0
 25 15  1  0
M  END
>  <name>  (652) 
P125465

>  <alias>  (652) 
None

>  <smina_score_min>  (652) 
-8.607

>  <exports>  (652) 
['/opt/xchem-fragalysis-2/maxwin/BulkDock/OUTPUTS/openbind_xx01zvns2b_c2_elabs_1LOUTNY.sdf', '/opt/xchem-fragalysis-2/maxwin/BulkDock/OUTPUTS/openbind_xx01zvns2b_c2_elabs_1LSYIIV.sdf']

>  <tags>  (652) 
syndirella_placed,openbind_xx01zvns2b_c2_elabs,openbind_xx01zvns2b_c2_elabs_scored_6.2plus,syndirella_product,openbind_xx01zvns2b_c2_elabs_scored,openbind_xx01zvns2b_c2_elabs_scored_top80percent,BulkDock Fragalysis export

>  <subsites>  (652) 
1 - Z4590/B/203/1

>  <smiles>  (652) 
CCCn1ncc2c(C(=O)Nc3ccc4c(c3)CN(CC(F)(F)F)C4)cc(C3CC3)nc21

>  <HIPPO Pose ID>  (652) 
125465

>  <energy_score>  (652) 
-20.441957

>  <inchikey>  (652) 
WQGYXRDCHHXAKF-UHFFFAOYSA-N

>  <gnina_score_min>  (652) 
6.382

>  <gnina_score>  (652) 
6.33

>  <ref_mols>  (652) 
Z3559a

>  <HIPPO Compound ID>  (652) 
179310

>  <distance_score>  (652) 
0.565864

>  <rmsd(smina/fragmenstein)>  (652) 
1.151

>  <ref_pdb>  (652) 
Z3559a

>  <inspiration_score>  (652) 
None

$$$$
P125468
     RDKit          3D

 32 36  0  0  0  0  0  0  0  0999 V2000
   -3.9480    6.1367  -14.2154 C   0  0  0  0  0  0  0  0  0  0  0  0
   -4.6542    5.8054  -15.4793 C   0  0  0  0  0  0  0  0  0  0  0  0
   -4.0141    5.9724  -16.6427 N   0  0  0  0  0  0  0  0  0  0  0  0
   -4.9164    5.5976  -17.5841 N   0  0  0  0  0  0  0  0  0  0  0  0
   -4.6010    5.8887  -18.9941 C   0  0  0  0  0  0  0  0  0  0  0  0
   -3.1234    5.5525  -19.2987 C   0  0  0  0  0  0  0  0  0  0  0  0
   -5.4770    5.1197  -19.9898 C   0  0  0  0  0  0  0  0  0  0  0  0
   -4.8194    7.3968  -19.2391 C   0  0  0  0  0  0  0  0  0  0  0  0
   -6.0867    5.1256  -17.0331 C   0  0  0  0  0  0  0  0  0  0  0  0
   -7.1565    4.6351  -17.6816 N   0  0  0  0  0  0  0  0  0  0  0  0
   -8.2215    4.2989  -16.9165 C   0  0  0  0  0  0  0  0  0  0  0  0
   -9.4763    3.8045  -17.6114 C   0  0  0  0  0  0  0  0  0  0  0  0
   -9.3915    2.6684  -18.6021 C   0  0  0  0  0  0  0  0  0  0  0  0
   -9.7048    4.0522  -19.0820 C   0  0  0  0  0  0  0  0  0  0  0  0
   -8.2233    4.4660  -15.5292 C   0  0  0  0  0  0  0  0  0  0  0  0
   -7.0963    4.9893  -14.8864 C   0  0  0  0  0  0  0  0  0  0  0  0
   -7.1266    5.3599  -13.4536 C   0  0  0  0  0  0  0  0  0  0  0  0
   -6.6996    6.4072  -13.1643 O   0  0  0  0  0  0  0  0  0  0  0  0
   -7.6866    4.2262  -12.5650 N   0  0  0  0  0  0  0  0  0  0  0  0
   -7.9178    4.1833  -11.1918 C   0  0  0  0  0  0  0  0  0  0  0  0
   -7.5554    5.2816  -10.3801 C   0  0  0  0  0  0  0  0  0  0  0  0
   -7.7617    5.2641   -8.9978 C   0  0  0  0  0  0  0  0  0  0  0  0
   -8.3401    4.1333   -8.4657 C   0  0  0  0  0  0  0  0  0  0  0  0
   -8.7114    3.0628   -9.2566 C   0  0  0  0  0  0  0  0  0  0  0  0
   -8.5069    3.0496  -10.6261 C   0  0  0  0  0  0  0  0  0  0  0  0
   -9.4082    2.1143   -8.3927 C   0  0  0  0  0  0  0  0  0  0  0  0
   -9.9784    1.1249   -8.8035 O   0  0  0  0  0  0  0  0  0  0  0  0
   -9.3711    2.6321   -7.1270 N   0  0  0  0  0  0  0  0  0  0  0  0
  -10.1156    2.0753   -6.0280 C   0  0  0  0  0  0  0  0  0  0  0  0
   -8.7661    3.8540   -7.0967 C   0  0  0  0  0  0  0  0  0  0  0  0
   -8.6328    4.6397   -6.1752 O   0  0  0  0  0  0  0  0  0  0  0  0
   -5.9709    5.3074  -15.6643 C   0  0  0  0  0  0  0  0  0  0  0  0
  1  2  1  0
  2  3  2  0
  3  4  1  0
  4  5  1  0
  5  6  1  0
  5  7  1  0
  5  8  1  0
  4  9  1  0
  9 10  2  0
 10 11  1  0
 11 12  1  0
 12 13  1  0
 13 14  1  0
 11 15  2  0
 15 16  1  0
 16 17  1  0
 17 18  2  0
 17 19  1  0
 19 20  1  0
 20 21  2  0
 21 22  1  0
 22 23  2  0
 23 24  1  0
 24 25  2  0
 24 26  1  0
 26 27  2  0
 26 28  1  0
 28 29  1  0
 28 30  1  0
 30 31  2  0
 16 32  2  0
 32  2  1  0
 32  9  1  0
 14 12  1  0
 25 20  1  0
 30 23  1  0
M  END
>  <name>  (653) 
P125468

>  <alias>  (653) 
None

>  <smina_score_min>  (653) 
-9.606

>  <exports>  (653) 
['/opt/xchem-fragalysis-2/maxwin/BulkDock/OUTPUTS/openbind_xx01zvns2b_c2_elabs_1LOUTNY.sdf', '/opt/xchem-fragalysis-2/maxwin/BulkDock/OUTPUTS/openbind_xx01zvns2b_c2_elabs_1LSYIIV.sdf']

>  <tags>  (653) 
syndirella_placed,openbind_xx01zvns2b_c2_elabs,openbind_xx01zvns2b_c2_elabs_scored_6.2plus,syndirella_product,openbind_xx01zvns2b_c2_elabs_scored,openbind_xx01zvns2b_c2_elabs_scored_top80percent,BulkDock Fragalysis export

>  <subsites>  (653) 
1 - Z4590/B/203/1

>  <smiles>  (653) 
Cc1nn(C(C)(C)C)c2nc(C3CC3)cc(C(=O)Nc3ccc4c(c3)C(=O)N(C)C4=O)c12

>  <HIPPO Pose ID>  (653) 
125468

>  <energy_score>  (653) 
-64.676327

>  <inchikey>  (653) 
ORZDWHFOXRZFGH-UHFFFAOYSA-N

>  <gnina_score_min>  (653) 
6.339

>  <gnina_score>  (653) 
6.423

>  <ref_mols>  (653) 
Z3559a

>  <HIPPO Compound ID>  (653) 
179401

>  <distance_score>  (653) 
0.406657

>  <rmsd(smina/fragmenstein)>  (653) 
0.853

>  <ref_pdb>  (653) 
Z3559a

>  <inspiration_score>  (653) 
None

$$$$
P125469
     RDKit          3D

 32 36  0  0  0  0  0  0  0  0999 V2000
   -9.1051    4.6514   -4.5062 C   0  0  0  0  0  0  0  0  0  0  0  0
   -7.8443    4.4110   -5.3097 C   0  0  0  0  0  0  0  0  0  0  0  0
   -6.8122    4.1369   -4.7502 O   0  0  0  0  0  0  0  0  0  0  0  0
   -8.1414    4.5323   -6.6938 N   0  0  0  0  0  0  0  0  0  0  0  0
   -7.9268    5.9912   -7.1552 C   0  0  0  0  0  0  0  0  0  0  0  0
   -8.0883    6.1954   -8.6123 C   0  0  0  0  0  0  0  0  0  0  0  0
   -8.4660    7.2283   -9.4420 C   0  0  0  0  0  0  0  0  0  0  0  0
   -8.3123    7.0438  -10.8263 C   0  0  0  0  0  0  0  0  0  0  0  0
   -7.7333    5.8642  -11.3238 C   0  0  0  0  0  0  0  0  0  0  0  0
   -7.4703    5.7208  -12.6794 N   0  0  0  0  0  0  0  0  0  0  0  0
   -6.5731    4.8468  -13.3741 C   0  0  0  0  0  0  0  0  0  0  0  0
   -5.7624    4.0707  -12.9624 O   0  0  0  0  0  0  0  0  0  0  0  0
   -6.7237    4.9160  -14.8325 C   0  0  0  0  0  0  0  0  0  0  0  0
   -7.8749    4.4138  -15.4440 C   0  0  0  0  0  0  0  0  0  0  0  0
   -7.9778    4.4202  -16.8349 C   0  0  0  0  0  0  0  0  0  0  0  0
   -9.2379    3.8720  -17.4851 C   0  0  0  0  0  0  0  0  0  0  0  0
   -9.1395    2.7976  -18.5433 C   0  0  0  0  0  0  0  0  0  0  0  0
   -9.5831    4.1756  -18.9225 C   0  0  0  0  0  0  0  0  0  0  0  0
   -6.9995    4.9296  -17.6229 N   0  0  0  0  0  0  0  0  0  0  0  0
   -5.8925    5.3717  -16.9977 C   0  0  0  0  0  0  0  0  0  0  0  0
   -5.6844    5.4002  -15.6291 C   0  0  0  0  0  0  0  0  0  0  0  0
   -4.3911    5.9479  -15.4624 C   0  0  0  0  0  0  0  0  0  0  0  0
   -3.6428    6.1780  -14.2015 C   0  0  0  0  0  0  0  0  0  0  0  0
   -3.8424    6.2889  -16.6337 N   0  0  0  0  0  0  0  0  0  0  0  0
   -4.7486    5.8857  -17.5659 N   0  0  0  0  0  0  0  0  0  0  0  0
   -4.4381    6.1295  -18.9859 C   0  0  0  0  0  0  0  0  0  0  0  0
   -2.9868    5.6964  -19.2921 C   0  0  0  0  0  0  0  0  0  0  0  0
   -5.3589    5.3746  -19.9568 C   0  0  0  0  0  0  0  0  0  0  0  0
   -4.5825    7.6384  -19.2687 C   0  0  0  0  0  0  0  0  0  0  0  0
   -7.3813    4.8360  -10.4537 C   0  0  0  0  0  0  0  0  0  0  0  0
   -7.6039    5.0355   -9.1141 C   0  0  0  0  0  0  0  0  0  0  0  0
   -7.2885    4.2455   -7.9212 C   0  0  0  0  0  0  0  0  0  0  0  0
  1  2  1  0
  2  3  2  0
  2  4  1  0
  4  5  1  0
  5  6  1  0
  6  7  2  0
  7  8  1  0
  8  9  2  0
  9 10  1  0
 10 11  1  0
 11 12  2  0
 11 13  1  0
 13 14  2  0
 14 15  1  0
 15 16  1  0
 16 17  1  0
 17 18  1  0
 15 19  2  0
 19 20  1  0
 20 21  2  0
 21 22  1  0
 22 23  1  0
 22 24  2  0
 24 25  1  0
 25 26  1  0
 26 27  1  0
 26 28  1  0
 26 29  1  0
  9 30  1  0
 30 31  2  0
 31 32  1  0
 32  4  1  0
 31  6  1  0
 21 13  1  0
 18 16  1  0
 25 20  1  0
M  END
>  <name>  (654) 
P125469

>  <alias>  (654) 
None

>  <smina_score_min>  (654) 
-8.881

>  <exports>  (654) 
['/opt/xchem-fragalysis-2/maxwin/BulkDock/OUTPUTS/openbind_xx01zvns2b_c2_elabs_1LOUTNY.sdf', '/opt/xchem-fragalysis-2/maxwin/BulkDock/OUTPUTS/openbind_xx01zvns2b_c2_elabs_1LSYIIV.sdf']

>  <tags>  (654) 
syndirella_placed,openbind_xx01zvns2b_c2_elabs,openbind_xx01zvns2b_c2_elabs_scored_6.2plus,syndirella_product,openbind_xx01zvns2b_c2_elabs_scored,openbind_xx01zvns2b_c2_elabs_scored_top80percent,BulkDock Fragalysis export

>  <subsites>  (654) 
1 - Z4590/B/203/1

>  <smiles>  (654) 
CC(=O)N1Cc2ccc(NC(=O)c3cc(C4CC4)nc4c3c(C)nn4C(C)(C)C)cc2C1

>  <HIPPO Pose ID>  (654) 
125469

>  <energy_score>  (654) 
-2.287127

>  <inchikey>  (654) 
BLSSREFFGDSJFF-UHFFFAOYSA-N

>  <gnina_score_min>  (654) 
6.256

>  <gnina_score>  (654) 
6.326

>  <ref_mols>  (654) 
Z3559a

>  <HIPPO Compound ID>  (654) 
179402

>  <distance_score>  (654) 
1.567729

>  <rmsd(smina/fragmenstein)>  (654) 
0.527

>  <ref_pdb>  (654) 
Z3559a

>  <inspiration_score>  (654) 
None

$$$$
P125470
     RDKit          3D

 32 36  0  0  0  0  0  0  0  0999 V2000
  -11.6550    2.5094   -4.8345 C   0  0  0  0  0  0  0  0  0  0  0  0
  -10.3256    3.0034   -5.3311 C   0  0  0  0  0  0  0  0  0  0  0  0
  -10.0339    2.2845   -6.6407 C   0  0  0  0  0  0  0  0  0  0  0  0
   -8.7692    2.6322   -7.2519 N   0  0  0  0  0  0  0  0  0  0  0  0
   -8.5016    4.0723   -7.3521 C   0  0  0  0  0  0  0  0  0  0  0  0
   -8.2008    4.3395   -8.7797 C   0  0  0  0  0  0  0  0  0  0  0  0
   -7.8821    5.5449   -9.3683 C   0  0  0  0  0  0  0  0  0  0  0  0
   -7.6661    5.5525  -10.7400 C   0  0  0  0  0  0  0  0  0  0  0  0
   -7.7704    4.3681  -11.4880 C   0  0  0  0  0  0  0  0  0  0  0  0
   -7.5174    4.3830  -12.8485 N   0  0  0  0  0  0  0  0  0  0  0  0
   -7.1297    5.5434  -13.7798 C   0  0  0  0  0  0  0  0  0  0  0  0
   -6.8863    6.6572  -13.5384 O   0  0  0  0  0  0  0  0  0  0  0  0
   -7.0593    5.0916  -15.1712 C   0  0  0  0  0  0  0  0  0  0  0  0
   -8.1750    4.5174  -15.7765 C   0  0  0  0  0  0  0  0  0  0  0  0
   -8.1632    4.2849  -17.1484 C   0  0  0  0  0  0  0  0  0  0  0  0
   -9.4310    3.7705  -17.7986 C   0  0  0  0  0  0  0  0  0  0  0  0
   -9.6616    3.9210  -19.2777 C   0  0  0  0  0  0  0  0  0  0  0  0
   -9.3846    2.5653  -18.7007 C   0  0  0  0  0  0  0  0  0  0  0  0
   -7.0919    4.5867  -17.9260 N   0  0  0  0  0  0  0  0  0  0  0  0
   -6.0281    5.1230  -17.2959 C   0  0  0  0  0  0  0  0  0  0  0  0
   -5.9300    5.3778  -15.9389 C   0  0  0  0  0  0  0  0  0  0  0  0
   -4.6325    5.9087  -15.7491 C   0  0  0  0  0  0  0  0  0  0  0  0
   -3.9735    6.3291  -14.4872 C   0  0  0  0  0  0  0  0  0  0  0  0
   -3.9733    6.0240  -16.9056 N   0  0  0  0  0  0  0  0  0  0  0  0
   -4.8545    5.5929  -17.8467 N   0  0  0  0  0  0  0  0  0  0  0  0
   -4.5270    5.8601  -19.2577 C   0  0  0  0  0  0  0  0  0  0  0  0
   -5.3714    5.0530  -20.2477 C   0  0  0  0  0  0  0  0  0  0  0  0
   -4.7772    7.3577  -19.5378 C   0  0  0  0  0  0  0  0  0  0  0  0
   -3.0395    5.5489  -19.5398 C   0  0  0  0  0  0  0  0  0  0  0  0
   -8.1107    3.1601  -10.8807 C   0  0  0  0  0  0  0  0  0  0  0  0
   -8.3180    3.1673   -9.5167 C   0  0  0  0  0  0  0  0  0  0  0  0
   -8.6875    2.0386   -8.6151 C   0  0  0  0  0  0  0  0  0  0  0  0
  1  2  1  0
  2  3  1  0
  3  4  1  0
  4  5  1  0
  5  6  1  0
  6  7  2  0
  7  8  1  0
  8  9  2  0
  9 10  1  0
 10 11  1  0
 11 12  2  0
 11 13  1  0
 13 14  2  0
 14 15  1  0
 15 16  1  0
 16 17  1  0
 17 18  1  0
 15 19  2  0
 19 20  1  0
 20 21  2  0
 21 22  1  0
 22 23  1  0
 22 24  2  0
 24 25  1  0
 25 26  1  0
 26 27  1  0
 26 28  1  0
 26 29  1  0
  9 30  1  0
 30 31  2  0
 31 32  1  0
 32  4  1  0
 31  6  1  0
 21 13  1  0
 18 16  1  0
 25 20  1  0
M  END
>  <name>  (655) 
P125470

>  <alias>  (655) 
None

>  <smina_score_min>  (655) 
-8.586

>  <exports>  (655) 
['/opt/xchem-fragalysis-2/maxwin/BulkDock/OUTPUTS/openbind_xx01zvns2b_c2_elabs_1LOUTNY.sdf', '/opt/xchem-fragalysis-2/maxwin/BulkDock/OUTPUTS/openbind_xx01zvns2b_c2_elabs_1LSYIIV.sdf']

>  <tags>  (655) 
syndirella_placed,openbind_xx01zvns2b_c2_elabs,openbind_xx01zvns2b_c2_elabs_scored_6.2plus,syndirella_product,openbind_xx01zvns2b_c2_elabs_scored,openbind_xx01zvns2b_c2_elabs_scored_top80percent,BulkDock Fragalysis export

>  <subsites>  (655) 
1 - Z4590/B/203/1

>  <smiles>  (655) 
CCCN1Cc2ccc(NC(=O)c3cc(C4CC4)nc4c3c(C)nn4C(C)(C)C)cc2C1

>  <HIPPO Pose ID>  (655) 
125470

>  <energy_score>  (655) 
-60.809801

>  <inchikey>  (655) 
QWWIRJDOASMLCA-UHFFFAOYSA-N

>  <gnina_score_min>  (655) 
6.568

>  <gnina_score>  (655) 
6.52

>  <ref_mols>  (655) 
Z3559a

>  <HIPPO Compound ID>  (655) 
179403

>  <distance_score>  (655) 
0.534323

>  <rmsd(smina/fragmenstein)>  (655) 
0.354

>  <ref_pdb>  (655) 
Z3559a

>  <inspiration_score>  (655) 
None

$$$$
P125472
     RDKit          3D

 32 36  0  0  0  0  0  0  0  0999 V2000
   -4.1957    6.3012  -14.0494 C   0  0  0  0  0  0  0  0  0  0  0  0
   -4.8161    5.8953  -15.3359 C   0  0  0  0  0  0  0  0  0  0  0  0
   -4.1273    6.0462  -16.4731 N   0  0  0  0  0  0  0  0  0  0  0  0
   -4.9727    5.6150  -17.4444 N   0  0  0  0  0  0  0  0  0  0  0  0
   -4.6039    5.8851  -18.8466 C   0  0  0  0  0  0  0  0  0  0  0  0
   -3.1278    5.5035  -19.0937 C   0  0  0  0  0  0  0  0  0  0  0  0
   -5.4726    5.1401  -19.8690 C   0  0  0  0  0  0  0  0  0  0  0  0
   -4.7690    7.3977  -19.1113 C   0  0  0  0  0  0  0  0  0  0  0  0
   -6.1523    5.1221  -16.9314 C   0  0  0  0  0  0  0  0  0  0  0  0
   -7.1847    4.5953  -17.6121 N   0  0  0  0  0  0  0  0  0  0  0  0
   -8.2807    4.2745  -16.8842 C   0  0  0  0  0  0  0  0  0  0  0  0
   -9.5114    3.7852  -17.6241 C   0  0  0  0  0  0  0  0  0  0  0  0
   -9.4030    2.6405  -18.6011 C   0  0  0  0  0  0  0  0  0  0  0  0
   -9.6765    4.0243  -19.1049 C   0  0  0  0  0  0  0  0  0  0  0  0
   -8.3439    4.4731  -15.5021 C   0  0  0  0  0  0  0  0  0  0  0  0
   -7.2571    5.0368  -14.8280 C   0  0  0  0  0  0  0  0  0  0  0  0
   -7.3982    5.5248  -13.4386 C   0  0  0  0  0  0  0  0  0  0  0  0
   -7.1293    6.6444  -13.2420 O   0  0  0  0  0  0  0  0  0  0  0  0
   -7.9182    4.4346  -12.4733 N   0  0  0  0  0  0  0  0  0  0  0  0
   -8.1189    4.4673  -11.0910 C   0  0  0  0  0  0  0  0  0  0  0  0
   -7.9541    5.6683  -10.3816 C   0  0  0  0  0  0  0  0  0  0  0  0
   -8.1280    5.7214   -8.9945 C   0  0  0  0  0  0  0  0  0  0  0  0
   -8.4745    4.5617   -8.3218 C   0  0  0  0  0  0  0  0  0  0  0  0
   -8.6470    3.3712   -9.0279 C   0  0  0  0  0  0  0  0  0  0  0  0
   -8.4782    3.3025  -10.4092 C   0  0  0  0  0  0  0  0  0  0  0  0
   -9.0232    2.2784   -8.0823 C   0  0  0  0  0  0  0  0  0  0  0  0
   -8.9209    2.8659   -6.7193 N   0  0  0  0  0  0  0  0  0  0  0  0
  -10.0473    2.4604   -5.8954 C   0  0  0  0  0  0  0  0  0  0  0  0
   -8.6262    4.3189   -6.8355 C   0  0  0  0  0  0  0  0  0  0  0  0
   -7.2621    4.6003   -6.1732 C   0  0  0  0  0  0  0  0  0  0  0  0
   -9.6222    5.2629   -6.1317 C   0  0  0  0  0  0  0  0  0  0  0  0
   -6.1033    5.3471  -15.5645 C   0  0  0  0  0  0  0  0  0  0  0  0
  1  2  1  0
  2  3  2  0
  3  4  1  0
  4  5  1  0
  5  6  1  0
  5  7  1  0
  5  8  1  0
  4  9  1  0
  9 10  2  0
 10 11  1  0
 11 12  1  0
 12 13  1  0
 13 14  1  0
 11 15  2  0
 15 16  1  0
 16 17  1  0
 17 18  2  0
 17 19  1  0
 19 20  1  0
 20 21  2  0
 21 22  1  0
 22 23  2  0
 23 24  1  0
 24 25  2  0
 24 26  1  0
 26 27  1  0
 27 28  1  0
 27 29  1  0
 29 30  1  0
 29 31  1  0
 16 32  2  0
 32  2  1  0
 32  9  1  0
 14 12  1  0
 25 20  1  0
 29 23  1  0
M  END
>  <name>  (656) 
P125472

>  <alias>  (656) 
None

>  <smina_score_min>  (656) 
-9.635

>  <exports>  (656) 
['/opt/xchem-fragalysis-2/maxwin/BulkDock/OUTPUTS/openbind_xx01zvns2b_c2_elabs_1LOUTNY.sdf', '/opt/xchem-fragalysis-2/maxwin/BulkDock/OUTPUTS/openbind_xx01zvns2b_c2_elabs_1LSYIIV.sdf']

>  <tags>  (656) 
syndirella_placed,openbind_xx01zvns2b_c2_elabs,openbind_xx01zvns2b_c2_elabs_scored_6.2plus,syndirella_product,openbind_xx01zvns2b_c2_elabs_scored,openbind_xx01zvns2b_c2_elabs_scored_top80percent,BulkDock Fragalysis export

>  <subsites>  (656) 
1 - Z4590/B/203/1

>  <smiles>  (656) 
Cc1nn(C(C)(C)C)c2nc(C3CC3)cc(C(=O)Nc3ccc4c(c3)CN(C)C4(C)C)c12

>  <HIPPO Pose ID>  (656) 
125472

>  <energy_score>  (656) 
-57.243655

>  <inchikey>  (656) 
GFGSOAHSEVPLDV-UHFFFAOYSA-N

>  <gnina_score_min>  (656) 
6.563

>  <gnina_score>  (656) 
6.525

>  <ref_mols>  (656) 
Z3559a

>  <HIPPO Compound ID>  (656) 
179425

>  <distance_score>  (656) 
0.52387

>  <rmsd(smina/fragmenstein)>  (656) 
0.828

>  <ref_pdb>  (656) 
Z3559a

>  <inspiration_score>  (656) 
None

$$$$
P125473
     RDKit          3D

 32 36  0  0  0  0  0  0  0  0999 V2000
   -4.4606    7.9736  -19.6996 C   0  0  0  0  0  0  0  0  0  0  0  0
   -5.2394    6.7226  -20.0769 C   0  0  0  0  0  0  0  0  0  0  0  0
   -4.7352    5.4577  -19.3852 C   0  0  0  0  0  0  0  0  0  0  0  0
   -4.9980    5.4395  -17.9622 N   0  0  0  0  0  0  0  0  0  0  0  0
   -4.0701    5.9027  -17.0916 N   0  0  0  0  0  0  0  0  0  0  0  0
   -4.6955    5.8199  -15.9110 C   0  0  0  0  0  0  0  0  0  0  0  0
   -5.9952    5.2784  -16.0163 C   0  0  0  0  0  0  0  0  0  0  0  0
   -7.0781    4.9828  -15.1826 C   0  0  0  0  0  0  0  0  0  0  0  0
   -7.0062    5.3710  -13.7622 C   0  0  0  0  0  0  0  0  0  0  0  0
   -6.4556    6.3690  -13.5084 O   0  0  0  0  0  0  0  0  0  0  0  0
   -7.6593    4.3229  -12.8331 N   0  0  0  0  0  0  0  0  0  0  0  0
   -7.8476    4.3301  -11.4574 C   0  0  0  0  0  0  0  0  0  0  0  0
   -7.4035    5.4401  -10.7116 C   0  0  0  0  0  0  0  0  0  0  0  0
   -7.5169    5.4626   -9.3293 C   0  0  0  0  0  0  0  0  0  0  0  0
   -8.0880    4.3598   -8.7394 C   0  0  0  0  0  0  0  0  0  0  0  0
   -8.5682    3.2617   -9.4514 C   0  0  0  0  0  0  0  0  0  0  0  0
   -8.4467    3.2289  -10.8297 C   0  0  0  0  0  0  0  0  0  0  0  0
   -9.1616    2.2744   -8.4994 C   0  0  0  0  0  0  0  0  0  0  0  0
   -9.0429    2.9754   -7.2260 N   0  0  0  0  0  0  0  0  0  0  0  0
   -9.4681    2.3886   -5.9733 C   0  0  0  0  0  0  0  0  0  0  0  0
  -10.7421    3.0326   -5.4147 C   0  0  0  0  0  0  0  0  0  0  0  0
  -10.5900    3.6855   -4.1495 O   0  0  0  0  0  0  0  0  0  0  0  0
   -9.7234    4.8056   -4.1577 C   0  0  0  0  0  0  0  0  0  0  0  0
   -8.3183    4.1400   -7.3202 C   0  0  0  0  0  0  0  0  0  0  0  0
   -7.9194    4.8892   -6.4488 O   0  0  0  0  0  0  0  0  0  0  0  0
   -8.2323    4.4500  -15.7634 C   0  0  0  0  0  0  0  0  0  0  0  0
   -8.2801    4.2339  -17.1441 C   0  0  0  0  0  0  0  0  0  0  0  0
   -9.5682    3.7556  -17.7723 C   0  0  0  0  0  0  0  0  0  0  0  0
   -9.5501    2.5522  -18.6791 C   0  0  0  0  0  0  0  0  0  0  0  0
   -9.8105    3.9143  -19.2503 C   0  0  0  0  0  0  0  0  0  0  0  0
   -7.2337    4.5031  -17.9642 N   0  0  0  0  0  0  0  0  0  0  0  0
   -6.1529    5.0200  -17.3620 C   0  0  0  0  0  0  0  0  0  0  0  0
  1  2  1  0
  2  3  1  0
  3  4  1  0
  4  5  1  0
  5  6  2  0
  6  7  1  0
  7  8  2  0
  8  9  1  0
  9 10  2  0
  9 11  1  0
 11 12  1  0
 12 13  2  0
 13 14  1  0
 14 15  2  0
 15 16  1  0
 16 17  2  0
 16 18  1  0
 18 19  1  0
 19 20  1  0
 20 21  1  0
 21 22  1  0
 22 23  1  0
 19 24  1  0
 24 25  2  0
  8 26  1  0
 26 27  2  0
 27 28  1  0
 28 29  1  0
 29 30  1  0
 27 31  1  0
 31 32  2  0
 32  4  1  0
 32  7  1  0
 17 12  1  0
 30 28  1  0
 24 15  1  0
M  END
>  <name>  (657) 
P125473

>  <alias>  (657) 
None

>  <smina_score_min>  (657) 
-8.131

>  <exports>  (657) 
['/opt/xchem-fragalysis-2/maxwin/BulkDock/OUTPUTS/openbind_xx01zvns2b_c2_elabs_1LOUTNY.sdf', '/opt/xchem-fragalysis-2/maxwin/BulkDock/OUTPUTS/openbind_xx01zvns2b_c2_elabs_1LSYIIV.sdf']

>  <tags>  (657) 
syndirella_placed,openbind_xx01zvns2b_c2_elabs,openbind_xx01zvns2b_c2_elabs_scored_6.2plus,syndirella_product,openbind_xx01zvns2b_c2_elabs_scored,openbind_xx01zvns2b_c2_elabs_scored_top80percent,BulkDock Fragalysis export

>  <subsites>  (657) 
1 - Z4590/B/203/1

>  <smiles>  (657) 
CCCn1ncc2c(C(=O)Nc3ccc4c(c3)CN(CCOC)C4=O)cc(C3CC3)nc21

>  <HIPPO Pose ID>  (657) 
125473

>  <energy_score>  (657) 
-45.216783

>  <inchikey>  (657) 
NPTJOGFPWUFUQD-UHFFFAOYSA-N

>  <gnina_score_min>  (657) 
6.427

>  <gnina_score>  (657) 
6.391

>  <ref_mols>  (657) 
Z3559a

>  <HIPPO Compound ID>  (657) 
179309

>  <distance_score>  (657) 
0.490113

>  <rmsd(smina/fragmenstein)>  (657) 
0.361

>  <ref_pdb>  (657) 
Z3559a

>  <inspiration_score>  (657) 
None

$$$$
P125474
     RDKit          3D

 32 36  0  0  0  0  0  0  0  0999 V2000
   -9.6148    6.0321   -4.5165 C   0  0  0  0  0  0  0  0  0  0  0  0
   -9.6883    4.8628   -3.7107 O   0  0  0  0  0  0  0  0  0  0  0  0
   -9.1876    3.6984   -4.3738 C   0  0  0  0  0  0  0  0  0  0  0  0
  -10.2245    3.0505   -5.2946 C   0  0  0  0  0  0  0  0  0  0  0  0
   -9.6042    2.2018   -6.4187 C   0  0  0  0  0  0  0  0  0  0  0  0
   -9.4330    2.9785   -7.6354 N   0  0  0  0  0  0  0  0  0  0  0  0
   -8.4990    4.1025   -7.5474 C   0  0  0  0  0  0  0  0  0  0  0  0
   -8.1292    4.3587   -8.9662 C   0  0  0  0  0  0  0  0  0  0  0  0
   -7.5811    5.4930   -9.5256 C   0  0  0  0  0  0  0  0  0  0  0  0
   -7.3434    5.4883  -10.8980 C   0  0  0  0  0  0  0  0  0  0  0  0
   -7.6385    4.3588  -11.6807 C   0  0  0  0  0  0  0  0  0  0  0  0
   -7.4218    4.3856  -13.0575 N   0  0  0  0  0  0  0  0  0  0  0  0
   -6.8985    5.5211  -13.9715 C   0  0  0  0  0  0  0  0  0  0  0  0
   -6.6408    6.6343  -13.7246 O   0  0  0  0  0  0  0  0  0  0  0  0
   -6.7738    5.1076  -15.3916 C   0  0  0  0  0  0  0  0  0  0  0  0
   -7.8523    4.6036  -16.1513 C   0  0  0  0  0  0  0  0  0  0  0  0
   -9.3325    4.3472  -15.3446 Cl  0  0  0  0  0  0  0  0  0  0  0  0
   -7.7264    4.4007  -17.5422 C   0  0  0  0  0  0  0  0  0  0  0  0
   -8.7617    3.9066  -18.5442 C   0  0  0  0  0  0  0  0  0  0  0  0
  -10.2452    3.7885  -18.4071 C   0  0  0  0  0  0  0  0  0  0  0  0
   -9.3864    2.5516  -18.3699 C   0  0  0  0  0  0  0  0  0  0  0  0
   -6.5705    4.6935  -18.1761 N   0  0  0  0  0  0  0  0  0  0  0  0
   -5.5849    5.1867  -17.4265 C   0  0  0  0  0  0  0  0  0  0  0  0
   -5.5865    5.4091  -16.0666 C   0  0  0  0  0  0  0  0  0  0  0  0
   -4.2885    5.9246  -15.7951 C   0  0  0  0  0  0  0  0  0  0  0  0
   -3.7034    6.3293  -14.4913 C   0  0  0  0  0  0  0  0  0  0  0  0
   -3.5480    6.0315  -16.9116 N   0  0  0  0  0  0  0  0  0  0  0  0
   -4.3726    5.5961  -17.8845 N   0  0  0  0  0  0  0  0  0  0  0  0
   -3.9540    5.6276  -19.2614 C   0  0  0  0  0  0  0  0  0  0  0  0
   -8.1880    3.2106  -11.0922 C   0  0  0  0  0  0  0  0  0  0  0  0
   -8.4351    3.2304   -9.7294 C   0  0  0  0  0  0  0  0  0  0  0  0
   -9.0385    2.1923   -8.8250 C   0  0  0  0  0  0  0  0  0  0  0  0
  1  2  1  0
  2  3  1  0
  3  4  1  0
  4  5  1  0
  5  6  1  0
  6  7  1  0
  7  8  1  0
  8  9  2  0
  9 10  1  0
 10 11  2  0
 11 12  1  0
 12 13  1  0
 13 14  2  0
 13 15  1  0
 15 16  2  0
 16 17  1  0
 16 18  1  0
 18 19  1  0
 19 20  1  0
 20 21  1  0
 18 22  2  0
 22 23  1  0
 23 24  2  0
 24 25  1  0
 25 26  1  0
 25 27  2  0
 27 28  1  0
 28 29  1  0
 11 30  1  0
 30 31  2  0
 31 32  1  0
 32  6  1  0
 31  8  1  0
 24 15  1  0
 21 19  1  0
 28 23  1  0
M  END
>  <name>  (658) 
P125474

>  <alias>  (658) 
None

>  <smina_score_min>  (658) 
-8.079

>  <exports>  (658) 
['/opt/xchem-fragalysis-2/maxwin/BulkDock/OUTPUTS/openbind_xx01zvns2b_c2_elabs_1LOUTNY.sdf', '/opt/xchem-fragalysis-2/maxwin/BulkDock/OUTPUTS/openbind_xx01zvns2b_c2_elabs_1LSYIIV.sdf']

>  <tags>  (658) 
syndirella_placed,openbind_xx01zvns2b_c2_elabs,openbind_xx01zvns2b_c2_elabs_scored_6.2plus,syndirella_product,openbind_xx01zvns2b_c2_elabs_scored,openbind_xx01zvns2b_c2_elabs_scored_top80percent,BulkDock Fragalysis export

>  <subsites>  (658) 
1 - Z4590/B/203/1

>  <smiles>  (658) 
COCCCN1Cc2ccc(NC(=O)c3c(Cl)c(C4CC4)nc4c3c(C)nn4C)cc2C1

>  <HIPPO Pose ID>  (658) 
125474

>  <energy_score>  (658) 
-73.461518

>  <inchikey>  (658) 
CXSHUQBMTUAUPI-UHFFFAOYSA-N

>  <gnina_score_min>  (658) 
6.703

>  <gnina_score>  (658) 
6.753

>  <ref_mols>  (658) 
Z3559a

>  <HIPPO Compound ID>  (658) 
179378

>  <distance_score>  (658) 
0.845075

>  <rmsd(smina/fragmenstein)>  (658) 
0.465

>  <ref_pdb>  (658) 
Z3559a

>  <inspiration_score>  (658) 
None

$$$$
P125475
     RDKit          3D

 32 37  0  0  0  0  0  0  0  0999 V2000
   -8.1846    4.3707   -6.0482 O   0  0  0  0  0  0  0  0  0  0  0  0
   -8.4978    3.6896   -7.0067 C   0  0  0  0  0  0  0  0  0  0  0  0
   -9.0385    2.4212   -6.9965 N   0  0  0  0  0  0  0  0  0  0  0  0
   -9.0567    1.8267   -8.3173 C   0  0  0  0  0  0  0  0  0  0  0  0
   -8.6667    2.9641   -9.2002 C   0  0  0  0  0  0  0  0  0  0  0  0
   -8.5681    3.0268  -10.5824 C   0  0  0  0  0  0  0  0  0  0  0  0
   -8.1147    4.2193  -11.1598 C   0  0  0  0  0  0  0  0  0  0  0  0
   -7.9659    4.2905  -12.5447 N   0  0  0  0  0  0  0  0  0  0  0  0
   -7.3098    5.3747  -13.4293 C   0  0  0  0  0  0  0  0  0  0  0  0
   -6.8598    6.4138  -13.1442 O   0  0  0  0  0  0  0  0  0  0  0  0
   -7.2486    4.9770  -14.8523 C   0  0  0  0  0  0  0  0  0  0  0  0
   -8.3524    4.4777  -15.5496 C   0  0  0  0  0  0  0  0  0  0  0  0
   -8.2759    4.2722  -16.9345 C   0  0  0  0  0  0  0  0  0  0  0  0
   -9.5145    3.8172  -17.6830 C   0  0  0  0  0  0  0  0  0  0  0  0
   -9.6344    4.0094  -19.1735 C   0  0  0  0  0  0  0  0  0  0  0  0
   -9.4410    2.6331  -18.6145 C   0  0  0  0  0  0  0  0  0  0  0  0
   -7.1495    4.5309  -17.6505 N   0  0  0  0  0  0  0  0  0  0  0  0
   -6.1076    4.9816  -16.9330 C   0  0  0  0  0  0  0  0  0  0  0  0
   -6.0752    5.2204  -15.5725 C   0  0  0  0  0  0  0  0  0  0  0  0
   -4.7660    5.6852  -15.3234 C   0  0  0  0  0  0  0  0  0  0  0  0
   -4.0065    5.7150  -16.4244 N   0  0  0  0  0  0  0  0  0  0  0  0
   -4.8728    5.3434  -17.4031 N   0  0  0  0  0  0  0  0  0  0  0  0
   -4.4798    5.4679  -18.7967 C   0  0  0  0  0  0  0  0  0  0  0  0
   -4.4839    6.9197  -19.1802 C   0  0  0  0  0  0  0  0  0  0  0  0
   -3.3471    7.7262  -19.1021 C   0  0  0  0  0  0  0  0  0  0  0  0
   -3.4578    9.0935  -19.3377 C   0  0  0  0  0  0  0  0  0  0  0  0
   -4.7101    9.6131  -19.6232 C   0  0  0  0  0  0  0  0  0  0  0  0
   -5.8348    8.8681  -19.6994 N   0  0  0  0  0  0  0  0  0  0  0  0
   -5.6844    7.5361  -19.4969 C   0  0  0  0  0  0  0  0  0  0  0  0
   -7.7871    5.3252  -10.3498 C   0  0  0  0  0  0  0  0  0  0  0  0
   -7.8914    5.2549   -8.9580 C   0  0  0  0  0  0  0  0  0  0  0  0
   -8.3279    4.0644   -8.4163 C   0  0  0  0  0  0  0  0  0  0  0  0
  1  2  2  0
  2  3  1  0
  3  4  1  0
  4  5  1  0
  5  6  2  0
  6  7  1  0
  7  8  1  0
  8  9  1  0
  9 10  2  0
  9 11  1  0
 11 12  2  0
 12 13  1  0
 13 14  1  0
 14 15  1  0
 15 16  1  0
 13 17  2  0
 17 18  1  0
 18 19  2  0
 19 20  1  0
 20 21  2  0
 21 22  1  0
 22 23  1  0
 23 24  1  0
 24 25  2  0
 25 26  1  0
 26 27  2  0
 27 28  1  0
 28 29  2  0
  7 30  2  0
 30 31  1  0
 31 32  2  0
 32  2  1  0
 32  5  1  0
 19 11  1  0
 29 24  1  0
 16 14  1  0
 22 18  1  0
M  END
>  <name>  (659) 
P125475

>  <alias>  (659) 
None

>  <smina_score_min>  (659) 
-9.381

>  <exports>  (659) 
['/opt/xchem-fragalysis-2/maxwin/BulkDock/OUTPUTS/openbind_xx01zvns2b_c2_elabs_1LOUTNY.sdf', '/opt/xchem-fragalysis-2/maxwin/BulkDock/OUTPUTS/openbind_xx01zvns2b_c2_elabs_1LSYIIV.sdf']

>  <tags>  (659) 
syndirella_placed,openbind_xx01zvns2b_c2_elabs,openbind_xx01zvns2b_c2_elabs_scored_6.2plus,syndirella_product,openbind_xx01zvns2b_c2_elabs_scored,openbind_xx01zvns2b_c2_elabs_scored_top80percent,BulkDock Fragalysis export

>  <subsites>  (659) 
1 - Z4590/B/203/1

>  <smiles>  (659) 
O=C1NCc2cc(NC(=O)c3cc(C4CC4)nc4c3cnn4Cc3cccnc3)ccc21

>  <HIPPO Pose ID>  (659) 
125475

>  <energy_score>  (659) 
-24.840933

>  <inchikey>  (659) 
DCGMOYLDJALNBF-UHFFFAOYSA-N

>  <gnina_score_min>  (659) 
6.48

>  <gnina_score>  (659) 
6.45

>  <ref_mols>  (659) 
Z3559a

>  <HIPPO Compound ID>  (659) 
179035

>  <distance_score>  (659) 
0.36382

>  <rmsd(smina/fragmenstein)>  (659) 
0.928

>  <ref_pdb>  (659) 
Z3559a

>  <inspiration_score>  (659) 
None

$$$$
P125476
     RDKit          3D

 32 37  0  0  0  0  0  0  0  0999 V2000
  -10.1772    2.2252   -6.0936 C   0  0  0  0  0  0  0  0  0  0  0  0
   -9.0371    2.5460   -6.9295 N   0  0  0  0  0  0  0  0  0  0  0  0
   -8.7397    3.9818   -7.0068 C   0  0  0  0  0  0  0  0  0  0  0  0
   -8.4122    4.2488   -8.4389 C   0  0  0  0  0  0  0  0  0  0  0  0
   -7.9596    5.4140   -9.0262 C   0  0  0  0  0  0  0  0  0  0  0  0
   -7.7483    5.4163  -10.4068 C   0  0  0  0  0  0  0  0  0  0  0  0
   -7.9975    4.2689  -11.1796 C   0  0  0  0  0  0  0  0  0  0  0  0
   -7.7575    4.2764  -12.5526 N   0  0  0  0  0  0  0  0  0  0  0  0
   -7.2995    5.4190  -13.4844 C   0  0  0  0  0  0  0  0  0  0  0  0
   -6.9771    6.5136  -13.2377 O   0  0  0  0  0  0  0  0  0  0  0  0
   -7.2339    4.9924  -14.8937 C   0  0  0  0  0  0  0  0  0  0  0  0
   -8.3392    4.4814  -15.5769 C   0  0  0  0  0  0  0  0  0  0  0  0
   -8.2657    4.2640  -16.9593 C   0  0  0  0  0  0  0  0  0  0  0  0
   -9.5087    3.8093  -17.7008 C   0  0  0  0  0  0  0  0  0  0  0  0
   -9.4476    2.6124  -18.6163 C   0  0  0  0  0  0  0  0  0  0  0  0
   -9.6257    3.9830  -19.1941 C   0  0  0  0  0  0  0  0  0  0  0  0
   -7.1404    4.5143  -17.6810 N   0  0  0  0  0  0  0  0  0  0  0  0
   -6.0968    4.9776  -16.9728 C   0  0  0  0  0  0  0  0  0  0  0  0
   -6.0630    5.2322  -15.6153 C   0  0  0  0  0  0  0  0  0  0  0  0
   -4.7588    5.7082  -15.3704 C   0  0  0  0  0  0  0  0  0  0  0  0
   -4.0017    5.7335  -16.4721 N   0  0  0  0  0  0  0  0  0  0  0  0
   -4.8639    5.3430  -17.4481 N   0  0  0  0  0  0  0  0  0  0  0  0
   -4.4723    5.4613  -18.8436 C   0  0  0  0  0  0  0  0  0  0  0  0
   -4.4707    6.9124  -19.2313 C   0  0  0  0  0  0  0  0  0  0  0  0
   -3.3223    7.7043  -19.1881 C   0  0  0  0  0  0  0  0  0  0  0  0
   -3.4234    9.0722  -19.4232 C   0  0  0  0  0  0  0  0  0  0  0  0
   -4.6776    9.6067  -19.6730 C   0  0  0  0  0  0  0  0  0  0  0  0
   -5.8139    8.8765  -19.7168 N   0  0  0  0  0  0  0  0  0  0  0  0
   -5.6721    7.5424  -19.5180 C   0  0  0  0  0  0  0  0  0  0  0  0
   -8.4625    3.1000  -10.5728 C   0  0  0  0  0  0  0  0  0  0  0  0
   -8.6582    3.1092   -9.1991 C   0  0  0  0  0  0  0  0  0  0  0  0
   -9.1503    2.0143   -8.3064 C   0  0  0  0  0  0  0  0  0  0  0  0
  1  2  1  0
  2  3  1  0
  3  4  1  0
  4  5  2  0
  5  6  1  0
  6  7  2  0
  7  8  1  0
  8  9  1  0
  9 10  2  0
  9 11  1  0
 11 12  2  0
 12 13  1  0
 13 14  1  0
 14 15  1  0
 15 16  1  0
 13 17  2  0
 17 18  1  0
 18 19  2  0
 19 20  1  0
 20 21  2  0
 21 22  1  0
 22 23  1  0
 23 24  1  0
 24 25  2  0
 25 26  1  0
 26 27  2  0
 27 28  1  0
 28 29  2  0
  7 30  1  0
 30 31  2  0
 31 32  1  0
 32  2  1  0
 31  4  1  0
 19 11  1  0
 29 24  1  0
 16 14  1  0
 22 18  1  0
M  END
>  <name>  (660) 
P125476

>  <alias>  (660) 
None

>  <smina_score_min>  (660) 
-9.105

>  <exports>  (660) 
['/opt/xchem-fragalysis-2/maxwin/BulkDock/OUTPUTS/openbind_xx01zvns2b_c2_elabs_1LOUTNY.sdf', '/opt/xchem-fragalysis-2/maxwin/BulkDock/OUTPUTS/openbind_xx01zvns2b_c2_elabs_1LSYIIV.sdf']

>  <tags>  (660) 
syndirella_placed,openbind_xx01zvns2b_c2_elabs,openbind_xx01zvns2b_c2_elabs_scored_6.2plus,syndirella_product,openbind_xx01zvns2b_c2_elabs_scored,openbind_xx01zvns2b_c2_elabs_scored_top80percent,BulkDock Fragalysis export

>  <subsites>  (660) 
1 - Z4590/B/203/1

>  <smiles>  (660) 
CN1Cc2ccc(NC(=O)c3cc(C4CC4)nc4c3cnn4Cc3cccnc3)cc2C1

>  <HIPPO Pose ID>  (660) 
125476

>  <energy_score>  (660) 
-27.248573

>  <inchikey>  (660) 
WPPGELDRKBZIEU-UHFFFAOYSA-N

>  <gnina_score_min>  (660) 
6.44

>  <gnina_score>  (660) 
6.437

>  <ref_mols>  (660) 
Z3559a

>  <HIPPO Compound ID>  (660) 
179036

>  <distance_score>  (660) 
0.39862

>  <rmsd(smina/fragmenstein)>  (660) 
0.823

>  <ref_pdb>  (660) 
Z3559a

>  <inspiration_score>  (660) 
None

$$$$
P125477
     RDKit          3D

 32 37  0  0  0  0  0  0  0  0999 V2000
  -10.8927    3.0023   -5.4533 C   0  0  0  0  0  0  0  0  0  0  0  0
   -9.6272    2.3392   -5.9553 C   0  0  0  0  0  0  0  0  0  0  0  0
   -9.1527    2.9275   -7.1791 N   0  0  0  0  0  0  0  0  0  0  0  0
   -9.1808    2.2229   -8.4520 C   0  0  0  0  0  0  0  0  0  0  0  0
   -8.6011    3.2408   -9.3781 C   0  0  0  0  0  0  0  0  0  0  0  0
   -8.4540    3.2161  -10.7544 C   0  0  0  0  0  0  0  0  0  0  0  0
   -7.9034    4.3458  -11.3727 C   0  0  0  0  0  0  0  0  0  0  0  0
   -7.7545    4.3622  -12.7543 N   0  0  0  0  0  0  0  0  0  0  0  0
   -7.1630    5.4425  -13.6872 C   0  0  0  0  0  0  0  0  0  0  0  0
   -6.7787    6.5193  -13.4501 O   0  0  0  0  0  0  0  0  0  0  0  0
   -7.1456    5.0130  -15.0966 C   0  0  0  0  0  0  0  0  0  0  0  0
   -8.2644    4.4526  -15.7178 C   0  0  0  0  0  0  0  0  0  0  0  0
   -8.2574    4.2335  -17.0988 C   0  0  0  0  0  0  0  0  0  0  0  0
   -9.5247    3.7522  -17.7695 C   0  0  0  0  0  0  0  0  0  0  0  0
   -9.4860    2.5472  -18.6725 C   0  0  0  0  0  0  0  0  0  0  0  0
   -9.7194    3.9093  -19.2546 C   0  0  0  0  0  0  0  0  0  0  0  0
   -7.1826    4.5151  -17.8778 N   0  0  0  0  0  0  0  0  0  0  0  0
   -6.1326    5.0531  -17.2371 C   0  0  0  0  0  0  0  0  0  0  0  0
   -6.0374    5.3269  -15.8876 C   0  0  0  0  0  0  0  0  0  0  0  0
   -4.7665    5.9171  -15.7350 C   0  0  0  0  0  0  0  0  0  0  0  0
   -4.1009    6.0211  -16.8901 N   0  0  0  0  0  0  0  0  0  0  0  0
   -4.9596    5.4934  -17.7959 N   0  0  0  0  0  0  0  0  0  0  0  0
   -4.6673    5.5258  -19.2098 C   0  0  0  0  0  0  0  0  0  0  0  0
   -5.1648    6.8006  -19.8884 C   0  0  0  0  0  0  0  0  0  0  0  0
   -4.4310    6.8336  -21.2269 C   0  0  0  0  0  0  0  0  0  0  0  0
   -3.2158    5.9169  -21.0702 C   0  0  0  0  0  0  0  0  0  0  0  0
   -3.1869    5.5210  -19.5986 C   0  0  0  0  0  0  0  0  0  0  0  0
   -7.5068    5.4656  -10.6142 C   0  0  0  0  0  0  0  0  0  0  0  0
   -7.6529    5.4824   -9.2310 C   0  0  0  0  0  0  0  0  0  0  0  0
   -8.1978    4.3607   -8.6495 C   0  0  0  0  0  0  0  0  0  0  0  0
   -8.5084    4.1417   -7.2392 C   0  0  0  0  0  0  0  0  0  0  0  0
   -8.2500    4.9212   -6.3404 O   0  0  0  0  0  0  0  0  0  0  0  0
  1  2  1  0
  2  3  1  0
  3  4  1  0
  4  5  1  0
  5  6  2  0
  6  7  1  0
  7  8  1  0
  8  9  1  0
  9 10  2  0
  9 11  1  0
 11 12  2  0
 12 13  1  0
 13 14  1  0
 14 15  1  0
 15 16  1  0
 13 17  2  0
 17 18  1  0
 18 19  2  0
 19 20  1  0
 20 21  2  0
 21 22  1  0
 22 23  1  0
 23 24  1  0
 24 25  1  0
 25 26  1  0
 26 27  1  0
  7 28  2  0
 28 29  1  0
 29 30  2  0
 30 31  1  0
 31 32  2  0
 31  3  1  0
 30  5  1  0
 19 11  1  0
 27 23  1  0
 16 14  1  0
 22 18  1  0
M  END
>  <name>  (661) 
P125477

>  <alias>  (661) 
None

>  <smina_score_min>  (661) 
-9.75

>  <exports>  (661) 
['/opt/xchem-fragalysis-2/maxwin/BulkDock/OUTPUTS/openbind_xx01zvns2b_c2_elabs_1LOUTNY.sdf', '/opt/xchem-fragalysis-2/maxwin/BulkDock/OUTPUTS/openbind_xx01zvns2b_c2_elabs_1LSYIIV.sdf']

>  <tags>  (661) 
syndirella_placed,openbind_xx01zvns2b_c2_elabs,openbind_xx01zvns2b_c2_elabs_scored_6.2plus,syndirella_product,openbind_xx01zvns2b_c2_elabs_scored,openbind_xx01zvns2b_c2_elabs_scored_top80percent,BulkDock Fragalysis export

>  <subsites>  (661) 
1 - Z4590/B/203/1

>  <smiles>  (661) 
CCN1Cc2cc(NC(=O)c3cc(C4CC4)nc4c3cnn4C3CCCC3)ccc2C1=O

>  <HIPPO Pose ID>  (661) 
125477

>  <energy_score>  (661) 
-41.064391

>  <inchikey>  (661) 
VFQYATJOCJCAFL-UHFFFAOYSA-N

>  <gnina_score_min>  (661) 
6.475

>  <gnina_score>  (661) 
6.423

>  <ref_mols>  (661) 
Z3559a

>  <HIPPO Compound ID>  (661) 
178959

>  <distance_score>  (661) 
0.450776

>  <rmsd(smina/fragmenstein)>  (661) 
1.145

>  <ref_pdb>  (661) 
Z3559a

>  <inspiration_score>  (661) 
None

$$$$
P125478
     RDKit          3D

 32 37  0  0  0  0  0  0  0  0999 V2000
   -9.5456    1.8091   -6.3202 C   0  0  0  0  0  0  0  0  0  0  0  0
   -9.6140    2.6966   -7.4562 N   0  0  0  0  0  0  0  0  0  0  0  0
   -8.7338    3.8737   -7.3104 C   0  0  0  0  0  0  0  0  0  0  0  0
   -8.3664    4.2159   -8.7179 C   0  0  0  0  0  0  0  0  0  0  0  0
   -7.8410    5.3801   -9.2396 C   0  0  0  0  0  0  0  0  0  0  0  0
   -7.6228    5.4366  -10.6184 C   0  0  0  0  0  0  0  0  0  0  0  0
   -7.9246    4.3373  -11.4402 C   0  0  0  0  0  0  0  0  0  0  0  0
   -7.7484    4.3904  -12.8153 N   0  0  0  0  0  0  0  0  0  0  0  0
   -7.1880    5.5132  -13.7105 C   0  0  0  0  0  0  0  0  0  0  0  0
   -6.8573    6.5993  -13.4433 O   0  0  0  0  0  0  0  0  0  0  0  0
   -7.1551    5.0968  -15.1229 C   0  0  0  0  0  0  0  0  0  0  0  0
   -8.2710    4.5379  -15.7448 C   0  0  0  0  0  0  0  0  0  0  0  0
   -8.2395    4.2727  -17.1123 C   0  0  0  0  0  0  0  0  0  0  0  0
   -9.4997    3.7703  -17.7834 C   0  0  0  0  0  0  0  0  0  0  0  0
   -9.4442    2.5643  -18.6844 C   0  0  0  0  0  0  0  0  0  0  0  0
   -9.6992    3.9218  -19.2677 C   0  0  0  0  0  0  0  0  0  0  0  0
   -7.1450    4.5160  -17.8747 N   0  0  0  0  0  0  0  0  0  0  0  0
   -6.0833    5.0609  -17.2425 C   0  0  0  0  0  0  0  0  0  0  0  0
   -6.0226    5.3635  -15.8926 C   0  0  0  0  0  0  0  0  0  0  0  0
   -4.7397    5.8930  -15.6935 C   0  0  0  0  0  0  0  0  0  0  0  0
   -4.0102    5.9093  -16.8072 N   0  0  0  0  0  0  0  0  0  0  0  0
   -4.8442    5.4185  -17.7752 N   0  0  0  0  0  0  0  0  0  0  0  0
   -4.3733    5.3234  -19.1191 C   0  0  0  0  0  0  0  0  0  0  0  0
   -3.0008    5.5029  -19.3800 C   0  0  0  0  0  0  0  0  0  0  0  0
   -2.4990    5.3510  -20.6757 C   0  0  0  0  0  0  0  0  0  0  0  0
   -3.3686    5.0497  -21.7145 C   0  0  0  0  0  0  0  0  0  0  0  0
   -2.8927    4.8975  -22.9570 F   0  0  0  0  0  0  0  0  0  0  0  0
   -4.7292    4.8967  -21.4809 C   0  0  0  0  0  0  0  0  0  0  0  0
   -5.2339    5.0256  -20.1825 C   0  0  0  0  0  0  0  0  0  0  0  0
   -8.4324    3.1586  -10.8962 C   0  0  0  0  0  0  0  0  0  0  0  0
   -8.6501    3.1212   -9.5351 C   0  0  0  0  0  0  0  0  0  0  0  0
   -9.1946    2.0130   -8.6985 C   0  0  0  0  0  0  0  0  0  0  0  0
  1  2  1  0
  2  3  1  0
  3  4  1  0
  4  5  2  0
  5  6  1  0
  6  7  2  0
  7  8  1  0
  8  9  1  0
  9 10  2  0
  9 11  1  0
 11 12  2  0
 12 13  1  0
 13 14  1  0
 14 15  1  0
 15 16  1  0
 13 17  2  0
 17 18  1  0
 18 19  2  0
 19 20  1  0
 20 21  2  0
 21 22  1  0
 22 23  1  0
 23 24  2  0
 24 25  1  0
 25 26  2  0
 26 27  1  0
 26 28  1  0
 28 29  2  0
  7 30  1  0
 30 31  2  0
 31 32  1  0
 32  2  1  0
 31  4  1  0
 19 11  1  0
 29 23  1  0
 16 14  1  0
 22 18  1  0
M  END
>  <name>  (662) 
P125478

>  <alias>  (662) 
None

>  <smina_score_min>  (662) 
-9.778

>  <exports>  (662) 
['/opt/xchem-fragalysis-2/maxwin/BulkDock/OUTPUTS/openbind_xx01zvns2b_c2_elabs_1LOUTNY.sdf', '/opt/xchem-fragalysis-2/maxwin/BulkDock/OUTPUTS/openbind_xx01zvns2b_c2_elabs_1LSYIIV.sdf']

>  <tags>  (662) 
syndirella_placed,openbind_xx01zvns2b_c2_elabs,openbind_xx01zvns2b_c2_elabs_scored_6.2plus,syndirella_product,openbind_xx01zvns2b_c2_elabs_scored,openbind_xx01zvns2b_c2_elabs_scored_top80percent,BulkDock Fragalysis export

>  <subsites>  (662) 
1 - Z4590/B/203/1

>  <smiles>  (662) 
CN1Cc2ccc(NC(=O)c3cc(C4CC4)nc4c3cnn4-c3ccc(F)cc3)cc2C1

>  <HIPPO Pose ID>  (662) 
125478

>  <energy_score>  (662) 
-82.072321

>  <inchikey>  (662) 
XBIGBIAKCWTPNP-UHFFFAOYSA-N

>  <gnina_score_min>  (662) 
6.432

>  <gnina_score>  (662) 
6.432

>  <ref_mols>  (662) 
Z3559a

>  <HIPPO Compound ID>  (662) 
178954

>  <distance_score>  (662) 
0.461502

>  <rmsd(smina/fragmenstein)>  (662) 
0.4

>  <ref_pdb>  (662) 
Z3559a

>  <inspiration_score>  (662) 
None

$$$$
P125479
     RDKit          3D

 32 37  0  0  0  0  0  0  0  0999 V2000
   -8.1864    4.4041   -6.1040 O   0  0  0  0  0  0  0  0  0  0  0  0
   -8.4894    3.7198   -7.0634 C   0  0  0  0  0  0  0  0  0  0  0  0
   -9.0376    2.4545   -7.0542 N   0  0  0  0  0  0  0  0  0  0  0  0
   -9.0445    1.8544   -8.3726 C   0  0  0  0  0  0  0  0  0  0  0  0
   -8.6368    2.9862   -9.2555 C   0  0  0  0  0  0  0  0  0  0  0  0
   -8.5237    3.0448  -10.6369 C   0  0  0  0  0  0  0  0  0  0  0  0
   -8.0551    4.2319  -11.2159 C   0  0  0  0  0  0  0  0  0  0  0  0
   -7.9008    4.2917  -12.6009 N   0  0  0  0  0  0  0  0  0  0  0  0
   -7.3336    5.4151  -13.5013 C   0  0  0  0  0  0  0  0  0  0  0  0
   -6.9786    6.4949  -13.2318 O   0  0  0  0  0  0  0  0  0  0  0  0
   -7.2781    5.0189  -14.9254 C   0  0  0  0  0  0  0  0  0  0  0  0
   -8.3802    4.4760  -15.5875 C   0  0  0  0  0  0  0  0  0  0  0  0
   -8.3267    4.2591  -16.9660 C   0  0  0  0  0  0  0  0  0  0  0  0
   -9.5654    3.7798  -17.6924 C   0  0  0  0  0  0  0  0  0  0  0  0
   -9.7214    3.9794  -19.1783 C   0  0  0  0  0  0  0  0  0  0  0  0
   -9.4757    2.6051  -18.6335 C   0  0  0  0  0  0  0  0  0  0  0  0
   -7.2231    4.5312  -17.7002 N   0  0  0  0  0  0  0  0  0  0  0  0
   -6.1735    5.0534  -17.0369 C   0  0  0  0  0  0  0  0  0  0  0  0
   -6.1342    5.3151  -15.6774 C   0  0  0  0  0  0  0  0  0  0  0  0
   -4.8554    5.8503  -15.4554 C   0  0  0  0  0  0  0  0  0  0  0  0
   -4.1137    5.9054  -16.5616 N   0  0  0  0  0  0  0  0  0  0  0  0
   -4.9309    5.4245  -17.5490 N   0  0  0  0  0  0  0  0  0  0  0  0
   -4.4449    5.3504  -18.8906 C   0  0  0  0  0  0  0  0  0  0  0  0
   -5.2904    5.0546  -19.9674 C   0  0  0  0  0  0  0  0  0  0  0  0
   -4.7688    4.9324  -21.2601 C   0  0  0  0  0  0  0  0  0  0  0  0
   -3.4068    5.0947  -21.4762 C   0  0  0  0  0  0  0  0  0  0  0  0
   -2.9123    4.9400  -22.7119 F   0  0  0  0  0  0  0  0  0  0  0  0
   -2.5529    5.4016  -20.4254 C   0  0  0  0  0  0  0  0  0  0  0  0
   -3.0713    5.5436  -19.1345 C   0  0  0  0  0  0  0  0  0  0  0  0
   -7.7243    5.3364  -10.4064 C   0  0  0  0  0  0  0  0  0  0  0  0
   -7.8464    5.2717   -9.0150 C   0  0  0  0  0  0  0  0  0  0  0  0
   -8.2993    4.0872   -8.4725 C   0  0  0  0  0  0  0  0  0  0  0  0
  1  2  2  0
  2  3  1  0
  3  4  1  0
  4  5  1  0
  5  6  2  0
  6  7  1  0
  7  8  1  0
  8  9  1  0
  9 10  2  0
  9 11  1  0
 11 12  2  0
 12 13  1  0
 13 14  1  0
 14 15  1  0
 15 16  1  0
 13 17  2  0
 17 18  1  0
 18 19  2  0
 19 20  1  0
 20 21  2  0
 21 22  1  0
 22 23  1  0
 23 24  2  0
 24 25  1  0
 25 26  2  0
 26 27  1  0
 26 28  1  0
 28 29  2  0
  7 30  2  0
 30 31  1  0
 31 32  2  0
 32  2  1  0
 32  5  1  0
 19 11  1  0
 29 23  1  0
 16 14  1  0
 22 18  1  0
M  END
>  <name>  (663) 
P125479

>  <alias>  (663) 
None

>  <smina_score_min>  (663) 
-10.22

>  <exports>  (663) 
['/opt/xchem-fragalysis-2/maxwin/BulkDock/OUTPUTS/openbind_xx01zvns2b_c2_elabs_1LOUTNY.sdf', '/opt/xchem-fragalysis-2/maxwin/BulkDock/OUTPUTS/openbind_xx01zvns2b_c2_elabs_1LSYIIV.sdf']

>  <tags>  (663) 
syndirella_placed,openbind_xx01zvns2b_c2_elabs,openbind_xx01zvns2b_c2_elabs_scored_6.2plus,syndirella_product,openbind_xx01zvns2b_c2_elabs_scored,openbind_xx01zvns2b_c2_elabs_scored_top80percent,BulkDock Fragalysis export

>  <subsites>  (663) 
1 - Z4590/B/203/1

>  <smiles>  (663) 
O=C1NCc2cc(NC(=O)c3cc(C4CC4)nc4c3cnn4-c3ccc(F)cc3)ccc21

>  <HIPPO Pose ID>  (663) 
125479

>  <energy_score>  (663) 
-44.854579

>  <inchikey>  (663) 
HLSLFUAYABYDCZ-UHFFFAOYSA-N

>  <gnina_score_min>  (663) 
6.49

>  <gnina_score>  (663) 
6.424

>  <ref_mols>  (663) 
Z3559a

>  <HIPPO Compound ID>  (663) 
178955

>  <distance_score>  (663) 
0.350305

>  <rmsd(smina/fragmenstein)>  (663) 
0.784

>  <ref_pdb>  (663) 
Z3559a

>  <inspiration_score>  (663) 
None

$$$$
P125480
     RDKit          3D

 32 37  0  0  0  0  0  0  0  0999 V2000
   -9.9719    1.0376   -8.6742 O   0  0  0  0  0  0  0  0  0  0  0  0
   -9.4173    2.0586   -8.3303 C   0  0  0  0  0  0  0  0  0  0  0  0
   -9.2894    2.5258   -7.0391 N   0  0  0  0  0  0  0  0  0  0  0  0
   -8.5996    3.7833   -6.9713 C   0  0  0  0  0  0  0  0  0  0  0  0
   -8.3392    4.0956   -8.4056 C   0  0  0  0  0  0  0  0  0  0  0  0
   -7.7479    5.2043   -8.9752 C   0  0  0  0  0  0  0  0  0  0  0  0
   -7.6222    5.2392  -10.3696 C   0  0  0  0  0  0  0  0  0  0  0  0
   -8.0790    4.1784  -11.1785 C   0  0  0  0  0  0  0  0  0  0  0  0
   -7.9313    4.2388  -12.5654 N   0  0  0  0  0  0  0  0  0  0  0  0
   -7.2804    5.3221  -13.4617 C   0  0  0  0  0  0  0  0  0  0  0  0
   -6.8359    6.3674  -13.1851 O   0  0  0  0  0  0  0  0  0  0  0  0
   -7.2557    4.9504  -14.8965 C   0  0  0  0  0  0  0  0  0  0  0  0
   -8.3656    4.4259  -15.5613 C   0  0  0  0  0  0  0  0  0  0  0  0
   -8.3279    4.2439  -16.9467 C   0  0  0  0  0  0  0  0  0  0  0  0
   -9.5709    3.7780  -17.6741 C   0  0  0  0  0  0  0  0  0  0  0  0
   -9.7313    3.9904  -19.1583 C   0  0  0  0  0  0  0  0  0  0  0  0
   -9.4866    2.6111  -18.6260 C   0  0  0  0  0  0  0  0  0  0  0  0
   -7.2345    4.5378  -17.6873 N   0  0  0  0  0  0  0  0  0  0  0  0
   -6.1781    5.0431  -17.0255 C   0  0  0  0  0  0  0  0  0  0  0  0
   -6.1235    5.2705  -15.6607 C   0  0  0  0  0  0  0  0  0  0  0  0
   -4.8473    5.8157  -15.4442 C   0  0  0  0  0  0  0  0  0  0  0  0
   -4.1255    5.9191  -16.5601 N   0  0  0  0  0  0  0  0  0  0  0  0
   -4.9535    5.4547  -17.5487 N   0  0  0  0  0  0  0  0  0  0  0  0
   -4.4926    5.4578  -18.9024 C   0  0  0  0  0  0  0  0  0  0  0  0
   -5.3068    5.0478  -19.9657 C   0  0  0  0  0  0  0  0  0  0  0  0
   -4.8099    5.0451  -21.2741 C   0  0  0  0  0  0  0  0  0  0  0  0
   -3.5082    5.4563  -21.5224 C   0  0  0  0  0  0  0  0  0  0  0  0
   -3.0389    5.4535  -22.7766 F   0  0  0  0  0  0  0  0  0  0  0  0
   -2.6867    5.8752  -20.4851 C   0  0  0  0  0  0  0  0  0  0  0  0
   -3.1758    5.8777  -19.1762 C   0  0  0  0  0  0  0  0  0  0  0  0
   -8.6805    3.0626  -10.5940 C   0  0  0  0  0  0  0  0  0  0  0  0
   -8.8013    3.0565   -9.2133 C   0  0  0  0  0  0  0  0  0  0  0  0
  1  2  2  0
  2  3  1  0
  3  4  1  0
  4  5  1  0
  5  6  2  0
  6  7  1  0
  7  8  2  0
  8  9  1  0
  9 10  1  0
 10 11  2  0
 10 12  1  0
 12 13  2  0
 13 14  1  0
 14 15  1  0
 15 16  1  0
 16 17  1  0
 14 18  2  0
 18 19  1  0
 19 20  2  0
 20 21  1  0
 21 22  2  0
 22 23  1  0
 23 24  1  0
 24 25  2  0
 25 26  1  0
 26 27  2  0
 27 28  1  0
 27 29  1  0
 29 30  2  0
  8 31  1  0
 31 32  2  0
 32  2  1  0
 32  5  1  0
 20 12  1  0
 30 24  1  0
 17 15  1  0
 23 19  1  0
M  END
>  <name>  (664) 
P125480

>  <alias>  (664) 
None

>  <smina_score_min>  (664) 
-10.02

>  <exports>  (664) 
['/opt/xchem-fragalysis-2/maxwin/BulkDock/OUTPUTS/openbind_xx01zvns2b_c2_elabs_1LOUTNY.sdf', '/opt/xchem-fragalysis-2/maxwin/BulkDock/OUTPUTS/openbind_xx01zvns2b_c2_elabs_1LSYIIV.sdf']

>  <tags>  (664) 
syndirella_placed,openbind_xx01zvns2b_c2_elabs,openbind_xx01zvns2b_c2_elabs_scored_6.2plus,syndirella_product,openbind_xx01zvns2b_c2_elabs_scored,openbind_xx01zvns2b_c2_elabs_scored_top80percent,BulkDock Fragalysis export

>  <subsites>  (664) 
1 - Z4590/B/203/1

>  <smiles>  (664) 
O=C1NCc2ccc(NC(=O)c3cc(C4CC4)nc4c3cnn4-c3ccc(F)cc3)cc21

>  <HIPPO Pose ID>  (664) 
125480

>  <energy_score>  (664) 
-57.623699

>  <inchikey>  (664) 
KUOMUELXECFLPY-UHFFFAOYSA-N

>  <gnina_score_min>  (664) 
6.327

>  <gnina_score>  (664) 
6.378

>  <ref_mols>  (664) 
Z3559a

>  <HIPPO Compound ID>  (664) 
178974

>  <distance_score>  (664) 
0.344658

>  <rmsd(smina/fragmenstein)>  (664) 
0.804

>  <ref_pdb>  (664) 
Z3559a

>  <inspiration_score>  (664) 
None

$$$$
P125481
     RDKit          3D

 32 37  0  0  0  0  0  0  0  0999 V2000
  -10.8758    2.9449   -5.4509 C   0  0  0  0  0  0  0  0  0  0  0  0
   -9.6230    2.2979   -6.0058 C   0  0  0  0  0  0  0  0  0  0  0  0
   -9.1859    2.9135   -7.2292 N   0  0  0  0  0  0  0  0  0  0  0  0
   -9.1534    2.2001   -8.4977 C   0  0  0  0  0  0  0  0  0  0  0  0
   -8.5955    3.2360   -9.4166 C   0  0  0  0  0  0  0  0  0  0  0  0
   -8.4291    3.2142  -10.7905 C   0  0  0  0  0  0  0  0  0  0  0  0
   -7.9123    4.3623  -11.4041 C   0  0  0  0  0  0  0  0  0  0  0  0
   -7.7570    4.3844  -12.7855 N   0  0  0  0  0  0  0  0  0  0  0  0
   -7.1129    5.4449  -13.7060 C   0  0  0  0  0  0  0  0  0  0  0  0
   -6.6808    6.5007  -13.4575 O   0  0  0  0  0  0  0  0  0  0  0  0
   -7.1047    5.0177  -15.1195 C   0  0  0  0  0  0  0  0  0  0  0  0
   -8.2197    4.4307  -15.7249 C   0  0  0  0  0  0  0  0  0  0  0  0
   -8.2312    4.2150  -17.1062 C   0  0  0  0  0  0  0  0  0  0  0  0
   -9.5054    3.7299  -17.7614 C   0  0  0  0  0  0  0  0  0  0  0  0
   -9.4759    2.5293  -18.6704 C   0  0  0  0  0  0  0  0  0  0  0  0
   -9.7202    3.8931  -19.2439 C   0  0  0  0  0  0  0  0  0  0  0  0
   -7.1713    4.5078  -17.8996 N   0  0  0  0  0  0  0  0  0  0  0  0
   -6.1267    5.0802  -17.2790 C   0  0  0  0  0  0  0  0  0  0  0  0
   -6.0247    5.3714  -15.9331 C   0  0  0  0  0  0  0  0  0  0  0  0
   -4.7895    6.0361  -15.8080 C   0  0  0  0  0  0  0  0  0  0  0  0
   -4.1675    6.1999  -16.9790 N   0  0  0  0  0  0  0  0  0  0  0  0
   -4.9751    5.5574  -17.8635 N   0  0  0  0  0  0  0  0  0  0  0  0
   -4.7327    5.6068  -19.3116 C   0  0  1  0  0  0  0  0  0  0  0  0
   -5.2339    6.9349  -19.8830 C   0  0  0  0  0  0  0  0  0  0  0  0
   -3.3247    5.3185  -19.8049 C   0  0  0  0  0  0  0  0  0  0  0  0
   -2.1449    6.1986  -19.4594 C   0  0  0  0  0  0  0  0  0  0  0  0
   -2.1943    4.7829  -18.9562 C   0  0  0  0  0  0  0  0  0  0  0  0
   -7.5665    5.4971  -10.6434 C   0  0  0  0  0  0  0  0  0  0  0  0
   -7.7277    5.5095   -9.2615 C   0  0  0  0  0  0  0  0  0  0  0  0
   -8.2410    4.3702   -8.6850 C   0  0  0  0  0  0  0  0  0  0  0  0
   -8.5699    4.1438   -7.2799 C   0  0  0  0  0  0  0  0  0  0  0  0
   -8.3465    4.9286   -6.3765 O   0  0  0  0  0  0  0  0  0  0  0  0
  1  2  1  0
  2  3  1  0
  3  4  1  0
  4  5  1  0
  5  6  2  0
  6  7  1  0
  7  8  1  0
  8  9  1  0
  9 10  2  0
  9 11  1  0
 11 12  2  0
 12 13  1  0
 13 14  1  0
 14 15  1  0
 15 16  1  0
 13 17  2  0
 17 18  1  0
 18 19  2  0
 19 20  1  0
 20 21  2  0
 21 22  1  0
 22 23  1  0
 23 24  1  1
 23 25  1  0
 25 26  1  0
 26 27  1  0
  7 28  2  0
 28 29  1  0
 29 30  2  0
 30 31  1  0
 31 32  2  0
 31  3  1  0
 30  5  1  0
 19 11  1  0
 27 25  1  0
 16 14  1  0
 22 18  1  0
M  END
>  <name>  (665) 
P125481

>  <alias>  (665) 
None

>  <smina_score_min>  (665) 
-9.346

>  <exports>  (665) 
['/opt/xchem-fragalysis-2/maxwin/BulkDock/OUTPUTS/openbind_xx01zvns2b_c2_elabs_1LOUTNY.sdf', '/opt/xchem-fragalysis-2/maxwin/BulkDock/OUTPUTS/openbind_xx01zvns2b_c2_elabs_1LSYIIV.sdf']

>  <tags>  (665) 
syndirella_placed,openbind_xx01zvns2b_c2_elabs,openbind_xx01zvns2b_c2_elabs_scored_6.2plus,syndirella_product,openbind_xx01zvns2b_c2_elabs_scored,openbind_xx01zvns2b_c2_elabs_scored_top80percent,BulkDock Fragalysis export

>  <subsites>  (665) 
1 - Z4590/B/203/1

>  <smiles>  (665) 
CCN1Cc2cc(NC(=O)c3cc(C4CC4)nc4c3cnn4[C@@H](C)C3CC3)ccc2C1=O

>  <HIPPO Pose ID>  (665) 
125481

>  <energy_score>  (665) 
-70.835453

>  <inchikey>  (665) 
FYDWMNOMFCFITO-AWEZNQCLSA-N

>  <gnina_score_min>  (665) 
6.514

>  <gnina_score>  (665) 
6.449

>  <ref_mols>  (665) 
Z3559a

>  <HIPPO Compound ID>  (665) 
179356

>  <distance_score>  (665) 
0.459292

>  <rmsd(smina/fragmenstein)>  (665) 
0.283

>  <ref_pdb>  (665) 
Z3559a

>  <inspiration_score>  (665) 
None

$$$$
P125483
     RDKit          3D

 32 36  0  0  0  0  0  0  0  0999 V2000
   -9.2274    5.6598   -3.4517 C   0  0  0  0  0  0  0  0  0  0  0  0
   -8.7740    4.2176   -3.2954 C   0  0  0  0  0  0  0  0  0  0  0  0
   -8.2392    3.6205   -4.5941 C   0  0  0  0  0  0  0  0  0  0  0  0
   -9.3252    3.1981   -5.6059 C   0  0  0  0  0  0  0  0  0  0  0  0
   -8.9200    3.5421   -6.9498 N   0  0  0  0  0  0  0  0  0  0  0  0
   -9.0053    2.6569   -8.1212 C   0  0  0  0  0  0  0  0  0  0  0  0
   -8.5603    3.5740   -9.2290 C   0  0  0  0  0  0  0  0  0  0  0  0
   -8.3856    3.3791  -10.5933 C   0  0  0  0  0  0  0  0  0  0  0  0
   -7.9930    4.4900  -11.3636 C   0  0  0  0  0  0  0  0  0  0  0  0
   -7.8036    4.4079  -12.7388 N   0  0  0  0  0  0  0  0  0  0  0  0
   -7.2405    5.4438  -13.7379 C   0  0  0  0  0  0  0  0  0  0  0  0
   -6.9192    6.5552  -13.5758 O   0  0  0  0  0  0  0  0  0  0  0  0
   -7.1415    4.9398  -15.1103 C   0  0  0  0  0  0  0  0  0  0  0  0
   -8.2349    4.3785  -15.7606 C   0  0  0  0  0  0  0  0  0  0  0  0
   -8.1877    4.2041  -17.1447 C   0  0  0  0  0  0  0  0  0  0  0  0
   -9.4514    3.7560  -17.8498 C   0  0  0  0  0  0  0  0  0  0  0  0
   -9.4539    2.5024  -18.6822 C   0  0  0  0  0  0  0  0  0  0  0  0
   -9.5701    3.8403  -19.3482 C   0  0  0  0  0  0  0  0  0  0  0  0
   -7.0933    4.5182  -17.8923 N   0  0  0  0  0  0  0  0  0  0  0  0
   -6.0560    5.0550  -17.2204 C   0  0  0  0  0  0  0  0  0  0  0  0
   -6.0105    5.2786  -15.8569 C   0  0  0  0  0  0  0  0  0  0  0  0
   -4.7657    5.8890  -15.6250 C   0  0  0  0  0  0  0  0  0  0  0  0
   -4.0608    6.0537  -16.7429 N   0  0  0  0  0  0  0  0  0  0  0  0
   -4.8715    5.5603  -17.7177 N   0  0  0  0  0  0  0  0  0  0  0  0
   -4.4628    5.8004  -19.0989 C   0  0  0  0  0  0  0  0  0  0  0  0
   -2.9950    5.4229  -19.3410 C   0  0  0  0  0  0  0  0  0  0  0  0
   -5.3527    5.1776  -20.1637 C   0  0  0  0  0  0  0  0  0  0  0  0
   -7.7851    5.7539  -10.7723 C   0  0  0  0  0  0  0  0  0  0  0  0
   -7.9635    5.9484   -9.4204 C   0  0  0  0  0  0  0  0  0  0  0  0
   -8.3474    4.8481   -8.6979 C   0  0  0  0  0  0  0  0  0  0  0  0
   -8.6461    4.8450   -7.2846 C   0  0  0  0  0  0  0  0  0  0  0  0
   -8.6529    5.8453   -6.5913 O   0  0  0  0  0  0  0  0  0  0  0  0
  1  2  1  0
  2  3  1  0
  3  4  1  0
  4  5  1  0
  5  6  1  0
  6  7  1  0
  7  8  2  0
  8  9  1  0
  9 10  1  0
 10 11  1  0
 11 12  2  0
 11 13  1  0
 13 14  2  0
 14 15  1  0
 15 16  1  0
 16 17  1  0
 17 18  1  0
 15 19  2  0
 19 20  1  0
 20 21  2  0
 21 22  1  0
 22 23  2  0
 23 24  1  0
 24 25  1  0
 25 26  1  0
 25 27  1  0
  9 28  2  0
 28 29  1  0
 29 30  2  0
 30 31  1  0
 31 32  2  0
 31  5  1  0
 30  7  1  0
 21 13  1  0
 18 16  1  0
 24 20  1  0
M  END
>  <name>  (666) 
P125483

>  <alias>  (666) 
None

>  <smina_score_min>  (666) 
-8.396

>  <exports>  (666) 
['/opt/xchem-fragalysis-2/maxwin/BulkDock/OUTPUTS/openbind_xx01zvns2b_c2_elabs_1LOUTNY.sdf', '/opt/xchem-fragalysis-2/maxwin/BulkDock/OUTPUTS/openbind_xx01zvns2b_c2_elabs_1LSYIIV.sdf']

>  <tags>  (666) 
syndirella_placed,openbind_xx01zvns2b_c2_elabs,openbind_xx01zvns2b_c2_elabs_scored_6.2plus,syndirella_product,openbind_xx01zvns2b_c2_elabs_scored,openbind_xx01zvns2b_c2_elabs_scored_top80percent,BulkDock Fragalysis export

>  <subsites>  (666) 
1 - Z4590/B/203/1

>  <smiles>  (666) 
CCCCN1Cc2cc(NC(=O)c3cc(C4CC4)nc4c3cnn4C(C)C)ccc2C1=O

>  <HIPPO Pose ID>  (666) 
125483

>  <energy_score>  (666) 
-29.909733

>  <inchikey>  (666) 
QOESPNPRJCIWSC-UHFFFAOYSA-N

>  <gnina_score_min>  (666) 
6.335

>  <gnina_score>  (666) 
6.353

>  <ref_mols>  (666) 
Z3559a

>  <HIPPO Compound ID>  (666) 
179382

>  <distance_score>  (666) 
0.642785

>  <rmsd(smina/fragmenstein)>  (666) 
0.945

>  <ref_pdb>  (666) 
Z3559a

>  <inspiration_score>  (666) 
None

$$$$
P125490
     RDKit          3D

 32 36  0  0  0  0  0  0  0  0999 V2000
  -11.5726    2.1677   -5.2655 C   0  0  0  0  0  0  0  0  0  0  0  0
  -11.0401    3.4751   -5.1406 O   0  0  0  0  0  0  0  0  0  0  0  0
   -9.6418    3.4463   -4.8524 C   0  0  0  0  0  0  0  0  0  0  0  0
   -8.8205    2.6573   -5.8787 C   0  0  0  0  0  0  0  0  0  0  0  0
   -8.8041    3.2817   -7.1712 N   0  0  0  0  0  0  0  0  0  0  0  0
   -8.9491    2.5221   -8.4114 C   0  0  0  0  0  0  0  0  0  0  0  0
   -8.4870    3.5128   -9.4297 C   0  0  0  0  0  0  0  0  0  0  0  0
   -8.3957    3.4197  -10.8068 C   0  0  0  0  0  0  0  0  0  0  0  0
   -7.8817    4.5274  -11.4942 C   0  0  0  0  0  0  0  0  0  0  0  0
   -7.6750    4.4630  -12.8639 N   0  0  0  0  0  0  0  0  0  0  0  0
   -7.0719    5.4988  -13.8366 C   0  0  0  0  0  0  0  0  0  0  0  0
   -6.5838    6.5385  -13.6277 O   0  0  0  0  0  0  0  0  0  0  0  0
   -7.0909    5.0333  -15.2307 C   0  0  0  0  0  0  0  0  0  0  0  0
   -8.2218    4.4600  -15.8116 C   0  0  0  0  0  0  0  0  0  0  0  0
   -8.2409    4.2149  -17.1870 C   0  0  0  0  0  0  0  0  0  0  0  0
   -9.5248    3.7313  -17.8198 C   0  0  0  0  0  0  0  0  0  0  0  0
   -9.7463    3.8611  -19.3030 C   0  0  0  0  0  0  0  0  0  0  0  0
   -9.5149    2.5082  -18.6973 C   0  0  0  0  0  0  0  0  0  0  0  0
   -7.1800    4.4745  -17.9950 N   0  0  0  0  0  0  0  0  0  0  0  0
   -6.1187    5.0310  -17.3892 C   0  0  0  0  0  0  0  0  0  0  0  0
   -5.9977    5.3296  -16.0481 C   0  0  0  0  0  0  0  0  0  0  0  0
   -4.7260    5.9257  -15.9269 C   0  0  0  0  0  0  0  0  0  0  0  0
   -4.0872    6.0224  -17.0965 N   0  0  0  0  0  0  0  0  0  0  0  0
   -4.9627    5.4791  -17.9779 N   0  0  0  0  0  0  0  0  0  0  0  0
   -4.6947    5.5213  -19.4102 C   0  0  0  0  0  0  0  0  0  0  0  0
   -3.2048    5.3937  -19.7444 C   0  0  0  0  0  0  0  0  0  0  0  0
   -5.2627    6.8025  -20.0178 C   0  0  0  0  0  0  0  0  0  0  0  0
   -7.5122    5.7059  -10.8138 C   0  0  0  0  0  0  0  0  0  0  0  0
   -7.5988    5.7914   -9.4352 C   0  0  0  0  0  0  0  0  0  0  0  0
   -8.0711    4.6793   -8.7848 C   0  0  0  0  0  0  0  0  0  0  0  0
   -8.1800    4.4930   -7.3500 C   0  0  0  0  0  0  0  0  0  0  0  0
   -7.7379    5.2614   -6.5150 O   0  0  0  0  0  0  0  0  0  0  0  0
  1  2  1  0
  2  3  1  0
  3  4  1  0
  4  5  1  0
  5  6  1  0
  6  7  1  0
  7  8  2  0
  8  9  1  0
  9 10  1  0
 10 11  1  0
 11 12  2  0
 11 13  1  0
 13 14  2  0
 14 15  1  0
 15 16  1  0
 16 17  1  0
 17 18  1  0
 15 19  2  0
 19 20  1  0
 20 21  2  0
 21 22  1  0
 22 23  2  0
 23 24  1  0
 24 25  1  0
 25 26  1  0
 25 27  1  0
  9 28  2  0
 28 29  1  0
 29 30  2  0
 30 31  1  0
 31 32  2  0
 31  5  1  0
 30  7  1  0
 21 13  1  0
 18 16  1  0
 24 20  1  0
M  END
>  <name>  (667) 
P125490

>  <alias>  (667) 
None

>  <smina_score_min>  (667) 
-8.113

>  <exports>  (667) 
['/opt/xchem-fragalysis-2/maxwin/BulkDock/OUTPUTS/openbind_xx01zvns2b_c2_elabs_1LOUTNY.sdf', '/opt/xchem-fragalysis-2/maxwin/BulkDock/OUTPUTS/openbind_xx01zvns2b_c2_elabs_1LSYIIV.sdf']

>  <tags>  (667) 
syndirella_placed,openbind_xx01zvns2b_c2_elabs,openbind_xx01zvns2b_c2_elabs_scored_6.2plus,syndirella_product,openbind_xx01zvns2b_c2_elabs_scored,openbind_xx01zvns2b_c2_elabs_scored_top80percent,BulkDock Fragalysis export

>  <subsites>  (667) 
1 - Z4590/B/203/1

>  <smiles>  (667) 
COCCN1Cc2cc(NC(=O)c3cc(C4CC4)nc4c3cnn4C(C)C)ccc2C1=O

>  <HIPPO Pose ID>  (667) 
125490

>  <energy_score>  (667) 
-47.106518

>  <inchikey>  (667) 
DHFWXGPACDLCKK-UHFFFAOYSA-N

>  <gnina_score_min>  (667) 
6.261

>  <gnina_score>  (667) 
6.267

>  <ref_mols>  (667) 
Z3559a

>  <HIPPO Compound ID>  (667) 
179419

>  <distance_score>  (667) 
0.621401

>  <rmsd(smina/fragmenstein)>  (667) 
0.833

>  <ref_pdb>  (667) 
Z3559a

>  <inspiration_score>  (667) 
None

$$$$
P125492
     RDKit          3D

 32 36  0  0  0  0  0  0  0  0999 V2000
   -8.3601    5.1347   -3.6139 C   0  0  0  0  0  0  0  0  0  0  0  0
   -8.6896    3.9236   -4.2788 O   0  0  0  0  0  0  0  0  0  0  0  0
  -10.0635    3.9037   -4.6704 C   0  0  0  0  0  0  0  0  0  0  0  0
  -10.4541    2.5938   -5.3450 C   0  0  0  0  0  0  0  0  0  0  0  0
   -9.5071    2.0501   -6.4178 C   0  0  0  0  0  0  0  0  0  0  0  0
   -9.5016    2.8608   -7.6238 N   0  0  0  0  0  0  0  0  0  0  0  0
   -8.6073    4.0289   -7.5535 C   0  0  0  0  0  0  0  0  0  0  0  0
   -8.3000    4.3086   -8.9870 C   0  0  0  0  0  0  0  0  0  0  0  0
   -7.8568    5.4744   -9.5710 C   0  0  0  0  0  0  0  0  0  0  0  0
   -7.7106    5.4863  -10.9572 C   0  0  0  0  0  0  0  0  0  0  0  0
   -7.9818    4.3410  -11.7310 C   0  0  0  0  0  0  0  0  0  0  0  0
   -7.8139    4.3815  -13.1148 N   0  0  0  0  0  0  0  0  0  0  0  0
   -7.3112    5.5166  -14.0301 C   0  0  0  0  0  0  0  0  0  0  0  0
   -7.0311    6.6219  -13.7807 O   0  0  0  0  0  0  0  0  0  0  0  0
   -7.1051    5.0718  -15.4219 C   0  0  0  0  0  0  0  0  0  0  0  0
   -8.1129    4.4942  -16.2076 C   0  0  0  0  0  0  0  0  0  0  0  0
   -7.8924    4.3071  -17.5838 C   0  0  0  0  0  0  0  0  0  0  0  0
   -8.9252    3.8090  -18.5618 C   0  0  0  0  0  0  0  0  0  0  0  0
  -10.3865    3.6788  -18.2813 C   0  0  0  0  0  0  0  0  0  0  0  0
   -9.5182    2.4480  -18.3596 C   0  0  0  0  0  0  0  0  0  0  0  0
   -6.7211    4.6170  -18.1810 N   0  0  0  0  0  0  0  0  0  0  0  0
   -5.7944    5.1614  -17.3886 C   0  0  0  0  0  0  0  0  0  0  0  0
   -5.8983    5.4151  -16.0397 C   0  0  0  0  0  0  0  0  0  0  0  0
   -4.6733    6.0300  -15.7067 C   0  0  0  0  0  0  0  0  0  0  0  0
   -3.8581    6.1675  -16.7596 N   0  0  0  0  0  0  0  0  0  0  0  0
   -4.5705    5.6289  -17.7772 N   0  0  0  0  0  0  0  0  0  0  0  0
   -4.0841    5.6736  -19.1500 C   0  0  0  0  0  0  0  0  0  0  0  0
   -4.4177    7.0180  -19.7961 C   0  0  0  0  0  0  0  0  0  0  0  0
   -2.5870    5.3723  -19.2517 C   0  0  0  0  0  0  0  0  0  0  0  0
   -8.4080    3.1599  -11.1181 C   0  0  0  0  0  0  0  0  0  0  0  0
   -8.5761    3.1684   -9.7439 C   0  0  0  0  0  0  0  0  0  0  0  0
   -9.0755    2.0991   -8.8212 C   0  0  0  0  0  0  0  0  0  0  0  0
  1  2  1  0
  2  3  1  0
  3  4  1  0
  4  5  1  0
  5  6  1  0
  6  7  1  0
  7  8  1  0
  8  9  2  0
  9 10  1  0
 10 11  2  0
 11 12  1  0
 12 13  1  0
 13 14  2  0
 13 15  1  0
 15 16  2  0
 16 17  1  0
 17 18  1  0
 18 19  1  0
 19 20  1  0
 17 21  2  0
 21 22  1  0
 22 23  2  0
 23 24  1  0
 24 25  2  0
 25 26  1  0
 26 27  1  0
 27 28  1  0
 27 29  1  0
 11 30  1  0
 30 31  2  0
 31 32  1  0
 32  6  1  0
 31  8  1  0
 23 15  1  0
 20 18  1  0
 26 22  1  0
M  END
>  <name>  (668) 
P125492

>  <alias>  (668) 
None

>  <smina_score_min>  (668) 
-8.642

>  <exports>  (668) 
['/opt/xchem-fragalysis-2/maxwin/BulkDock/OUTPUTS/openbind_xx01zvns2b_c2_elabs_1LOUTNY.sdf', '/opt/xchem-fragalysis-2/maxwin/BulkDock/OUTPUTS/openbind_xx01zvns2b_c2_elabs_1LSYIIV.sdf']

>  <tags>  (668) 
syndirella_placed,openbind_xx01zvns2b_c2_elabs,openbind_xx01zvns2b_c2_elabs_scored_6.2plus,syndirella_product,openbind_xx01zvns2b_c2_elabs_scored,openbind_xx01zvns2b_c2_elabs_scored_top80percent,BulkDock Fragalysis export

>  <subsites>  (668) 
1 - Z4590/B/203/1

>  <smiles>  (668) 
COCCCN1Cc2ccc(NC(=O)c3cc(C4CC4)nc4c3cnn4C(C)C)cc2C1

>  <HIPPO Pose ID>  (668) 
125492

>  <energy_score>  (668) 
-68.321687

>  <inchikey>  (668) 
PXKQNURWLCVPPP-UHFFFAOYSA-N

>  <gnina_score_min>  (668) 
6.659

>  <gnina_score>  (668) 
6.528

>  <ref_mols>  (668) 
Z3559a

>  <HIPPO Compound ID>  (668) 
179405

>  <distance_score>  (668) 
0.732253

>  <rmsd(smina/fragmenstein)>  (668) 
0.329

>  <ref_pdb>  (668) 
Z3559a

>  <inspiration_score>  (668) 
None

$$$$
P125493
     RDKit          3D

 32 37  0  0  0  0  0  0  0  0999 V2000
  -10.0611    2.1079   -6.0413 C   0  0  0  0  0  0  0  0  0  0  0  0
   -9.3282    2.6487   -7.1556 N   0  0  0  0  0  0  0  0  0  0  0  0
   -8.6750    3.8460   -7.1329 C   0  0  0  0  0  0  0  0  0  0  0  0
   -8.4834    4.6150   -6.2076 O   0  0  0  0  0  0  0  0  0  0  0  0
   -8.2793    4.1215   -8.5121 C   0  0  0  0  0  0  0  0  0  0  0  0
   -7.6783    5.2365   -9.0533 C   0  0  0  0  0  0  0  0  0  0  0  0
   -7.5239    5.2652  -10.4428 C   0  0  0  0  0  0  0  0  0  0  0  0
   -7.9657    4.1962  -11.2535 C   0  0  0  0  0  0  0  0  0  0  0  0
   -7.8302    4.2677  -12.6396 N   0  0  0  0  0  0  0  0  0  0  0  0
   -7.1245    5.3209  -13.5276 C   0  0  0  0  0  0  0  0  0  0  0  0
   -6.6134    6.3319  -13.2420 O   0  0  0  0  0  0  0  0  0  0  0  0
   -7.1417    4.9575  -14.9656 C   0  0  0  0  0  0  0  0  0  0  0  0
   -8.2662    4.4192  -15.6027 C   0  0  0  0  0  0  0  0  0  0  0  0
   -8.2711    4.2393  -16.9927 C   0  0  0  0  0  0  0  0  0  0  0  0
   -9.5359    3.7667  -17.6786 C   0  0  0  0  0  0  0  0  0  0  0  0
   -9.7388    3.9757  -19.1586 C   0  0  0  0  0  0  0  0  0  0  0  0
   -9.4811    2.5974  -18.6298 C   0  0  0  0  0  0  0  0  0  0  0  0
   -7.2038    4.5423  -17.7723 N   0  0  0  0  0  0  0  0  0  0  0  0
   -6.1519    5.0655  -17.1241 C   0  0  0  0  0  0  0  0  0  0  0  0
   -6.0454    5.3015  -15.7668 C   0  0  0  0  0  0  0  0  0  0  0  0
   -4.7728    5.8919  -15.6147 C   0  0  0  0  0  0  0  0  0  0  0  0
   -4.1244    6.0386  -16.7750 N   0  0  0  0  0  0  0  0  0  0  0  0
   -4.9855    5.5205  -17.6833 N   0  0  0  0  0  0  0  0  0  0  0  0
   -4.6999    5.5956  -19.1067 C   0  0  0  0  0  0  0  0  0  0  0  0
   -5.0576    6.9798  -19.6766 C   0  0  0  0  0  0  0  0  0  0  0  0
   -3.8505    7.4148  -20.4978 C   0  0  0  0  0  0  0  0  0  0  0  0
   -2.6779    6.7452  -19.8035 C   0  0  0  0  0  0  0  0  0  0  0  0
   -3.2226    5.3636  -19.4713 C   0  0  0  0  0  0  0  0  0  0  0  0
   -8.5677    3.0739  -10.6770 C   0  0  0  0  0  0  0  0  0  0  0  0
   -8.7130    3.0723   -9.2997 C   0  0  0  0  0  0  0  0  0  0  0  0
   -9.4047    2.1333   -8.4204 C   0  0  0  0  0  0  0  0  0  0  0  0
   -9.9933    1.1468   -8.8128 O   0  0  0  0  0  0  0  0  0  0  0  0
  1  2  1  0
  2  3  1  0
  3  4  2  0
  3  5  1  0
  5  6  2  0
  6  7  1  0
  7  8  2  0
  8  9  1  0
  9 10  1  0
 10 11  2  0
 10 12  1  0
 12 13  2  0
 13 14  1  0
 14 15  1  0
 15 16  1  0
 16 17  1  0
 14 18  2  0
 18 19  1  0
 19 20  2  0
 20 21  1  0
 21 22  2  0
 22 23  1  0
 23 24  1  0
 24 25  1  0
 25 26  1  0
 26 27  1  0
 27 28  1  0
  8 29  1  0
 29 30  2  0
 30 31  1  0
 31 32  2  0
 31  2  1  0
 30  5  1  0
 20 12  1  0
 28 24  1  0
 17 15  1  0
 23 19  1  0
M  END
>  <name>  (669) 
P125493

>  <alias>  (669) 
None

>  <smina_score_min>  (669) 
-9.418

>  <exports>  (669) 
['/opt/xchem-fragalysis-2/maxwin/BulkDock/OUTPUTS/openbind_xx01zvns2b_c2_elabs_1LOUTNY.sdf', '/opt/xchem-fragalysis-2/maxwin/BulkDock/OUTPUTS/openbind_xx01zvns2b_c2_elabs_1LSYIIV.sdf']

>  <tags>  (669) 
syndirella_placed,openbind_xx01zvns2b_c2_elabs,openbind_xx01zvns2b_c2_elabs_scored_6.2plus,syndirella_product,openbind_xx01zvns2b_c2_elabs_scored,openbind_xx01zvns2b_c2_elabs_scored_top80percent,BulkDock Fragalysis export

>  <subsites>  (669) 
1 - Z4590/B/203/1

>  <smiles>  (669) 
CN1C(=O)c2ccc(NC(=O)c3cc(C4CC4)nc4c3cnn4C3CCCC3)cc2C1=O

>  <HIPPO Pose ID>  (669) 
125493

>  <energy_score>  (669) 
-58.82095

>  <inchikey>  (669) 
SQZVGVSJMITLJL-UHFFFAOYSA-N

>  <gnina_score_min>  (669) 
6.297

>  <gnina_score>  (669) 
6.374

>  <ref_mols>  (669) 
Z3559a

>  <HIPPO Compound ID>  (669) 
178972

>  <distance_score>  (669) 
0.353419

>  <rmsd(smina/fragmenstein)>  (669) 
0.352

>  <ref_pdb>  (669) 
Z3559a

>  <inspiration_score>  (669) 
None

$$$$
P125494
     RDKit          3D

 32 37  0  0  0  0  0  0  0  0999 V2000
   -9.2175    3.8135   -4.1215 C   0  0  0  0  0  0  0  0  0  0  0  0
  -10.3491    3.5166   -5.0910 C   0  0  0  0  0  0  0  0  0  0  0  0
  -10.0281    2.5726   -6.2647 C   0  0  0  0  0  0  0  0  0  0  0  0
   -8.8894    2.8935   -7.1188 N   0  0  0  0  0  0  0  0  0  0  0  0
   -8.5975    4.3075   -7.3419 C   0  0  0  0  0  0  0  0  0  0  0  0
   -8.3274    4.4527   -8.7967 C   0  0  0  0  0  0  0  0  0  0  0  0
   -7.9766    5.6009   -9.4742 C   0  0  0  0  0  0  0  0  0  0  0  0
   -7.8256    5.5206  -10.8546 C   0  0  0  0  0  0  0  0  0  0  0  0
   -8.0161    4.3085  -11.5446 C   0  0  0  0  0  0  0  0  0  0  0  0
   -7.8252    4.2915  -12.9305 N   0  0  0  0  0  0  0  0  0  0  0  0
   -7.4955    5.4390  -13.9128 C   0  0  0  0  0  0  0  0  0  0  0  0
   -7.4076    6.5902  -13.7309 O   0  0  0  0  0  0  0  0  0  0  0  0
   -7.1794    4.9841  -15.2818 C   0  0  0  0  0  0  0  0  0  0  0  0
   -8.1232    4.3987  -16.1324 C   0  0  0  0  0  0  0  0  0  0  0  0
   -7.8358    4.2876  -17.5049 C   0  0  0  0  0  0  0  0  0  0  0  0
   -8.8055    3.7710  -18.5409 C   0  0  0  0  0  0  0  0  0  0  0  0
  -10.2874    3.6808  -18.3472 C   0  0  0  0  0  0  0  0  0  0  0  0
   -9.4472    2.4287  -18.3647 C   0  0  0  0  0  0  0  0  0  0  0  0
   -6.6667    4.7091  -18.0432 N   0  0  0  0  0  0  0  0  0  0  0  0
   -5.8010    5.2774  -17.1988 C   0  0  0  0  0  0  0  0  0  0  0  0
   -5.9672    5.4189  -15.8355 C   0  0  0  0  0  0  0  0  0  0  0  0
   -4.7975    6.0746  -15.4068 C   0  0  0  0  0  0  0  0  0  0  0  0
   -3.9599    6.3482  -16.4109 N   0  0  0  0  0  0  0  0  0  0  0  0
   -4.6293    5.9180  -17.5122 N   0  0  0  0  0  0  0  0  0  0  0  0
   -4.0950    6.2947  -18.8100 C   0  0  0  0  0  0  0  0  0  0  0  0
   -5.0785    6.4240  -19.9848 C   0  0  0  0  0  0  0  0  0  0  0  0
   -4.7803    5.2269  -20.8750 C   0  0  0  0  0  0  0  0  0  0  0  0
   -3.2711    5.0896  -20.7630 C   0  0  0  0  0  0  0  0  0  0  0  0
   -2.9825    5.3504  -19.2888 C   0  0  0  0  0  0  0  0  0  0  0  0
   -8.3663    3.1502  -10.8369 C   0  0  0  0  0  0  0  0  0  0  0  0
   -8.5227    3.2429   -9.4546 C   0  0  0  0  0  0  0  0  0  0  0  0
   -8.9397    2.2081   -8.4462 C   0  0  0  0  0  0  0  0  0  0  0  0
  1  2  1  0
  2  3  1  0
  3  4  1  0
  4  5  1  0
  5  6  1  0
  6  7  2  0
  7  8  1  0
  8  9  2  0
  9 10  1  0
 10 11  1  0
 11 12  2  0
 11 13  1  0
 13 14  2  0
 14 15  1  0
 15 16  1  0
 16 17  1  0
 17 18  1  0
 15 19  2  0
 19 20  1  0
 20 21  2  0
 21 22  1  0
 22 23  2  0
 23 24  1  0
 24 25  1  0
 25 26  1  0
 26 27  1  0
 27 28  1  0
 28 29  1  0
  9 30  1  0
 30 31  2  0
 31 32  1  0
 32  4  1  0
 31  6  1  0
 21 13  1  0
 29 25  1  0
 18 16  1  0
 24 20  1  0
M  END
>  <name>  (670) 
P125494

>  <alias>  (670) 
None

>  <smina_score_min>  (670) 
-10.015

>  <exports>  (670) 
['/opt/xchem-fragalysis-2/maxwin/BulkDock/OUTPUTS/openbind_xx01zvns2b_c2_elabs_1LOUTNY.sdf', '/opt/xchem-fragalysis-2/maxwin/BulkDock/OUTPUTS/openbind_xx01zvns2b_c2_elabs_1LSYIIV.sdf']

>  <tags>  (670) 
syndirella_placed,openbind_xx01zvns2b_c2_elabs,openbind_xx01zvns2b_c2_elabs_scored_6.2plus,syndirella_product,openbind_xx01zvns2b_c2_elabs_scored,openbind_xx01zvns2b_c2_elabs_scored_top80percent,BulkDock Fragalysis export

>  <subsites>  (670) 
1 - Z4590/B/203/1

>  <smiles>  (670) 
CCCN1Cc2ccc(NC(=O)c3cc(C4CC4)nc4c3cnn4C3CCCC3)cc2C1

>  <HIPPO Pose ID>  (670) 
125494

>  <energy_score>  (670) 
-40.945387

>  <inchikey>  (670) 
ZWKAVVUZPWFDHR-UHFFFAOYSA-N

>  <gnina_score_min>  (670) 
6.733

>  <gnina_score>  (670) 
6.55

>  <ref_mols>  (670) 
Z3559a

>  <HIPPO Compound ID>  (670) 
178976

>  <distance_score>  (670) 
0.725775

>  <rmsd(smina/fragmenstein)>  (670) 
0.567

>  <ref_pdb>  (670) 
Z3559a

>  <inspiration_score>  (670) 
None

$$$$
P125495
     RDKit          3D

 32 37  0  0  0  0  0  0  0  0999 V2000
  -10.7287    2.6591   -5.3501 C   0  0  0  0  0  0  0  0  0  0  0  0
   -9.9238    1.8942   -6.3767 C   0  0  0  0  0  0  0  0  0  0  0  0
   -9.4832    2.7251   -7.4642 N   0  0  0  0  0  0  0  0  0  0  0  0
   -8.6567    3.9013   -7.2804 C   0  0  0  0  0  0  0  0  0  0  0  0
   -8.2779    4.2389   -8.6816 C   0  0  0  0  0  0  0  0  0  0  0  0
   -7.6279    5.3414   -9.1922 C   0  0  0  0  0  0  0  0  0  0  0  0
   -7.4393    5.4024  -10.5787 C   0  0  0  0  0  0  0  0  0  0  0  0
   -7.8808    4.3644  -11.4239 C   0  0  0  0  0  0  0  0  0  0  0  0
   -7.7134    4.4317  -12.7986 N   0  0  0  0  0  0  0  0  0  0  0  0
   -6.9927    5.4785  -13.6688 C   0  0  0  0  0  0  0  0  0  0  0  0
   -6.4917    6.4899  -13.3754 O   0  0  0  0  0  0  0  0  0  0  0  0
   -6.9998    5.0888  -15.0954 C   0  0  0  0  0  0  0  0  0  0  0  0
   -8.1190    4.5364  -15.7217 C   0  0  0  0  0  0  0  0  0  0  0  0
   -8.1143    4.3252  -17.1033 C   0  0  0  0  0  0  0  0  0  0  0  0
   -9.3828    3.8009  -17.7510 C   0  0  0  0  0  0  0  0  0  0  0  0
   -9.6422    3.9884  -19.2212 C   0  0  0  0  0  0  0  0  0  0  0  0
   -9.3249    2.6234  -18.6900 C   0  0  0  0  0  0  0  0  0  0  0  0
   -7.0480    4.6419  -17.8857 N   0  0  0  0  0  0  0  0  0  0  0  0
   -5.9810    5.1554  -17.2434 C   0  0  0  0  0  0  0  0  0  0  0  0
   -5.8887    5.3932  -15.8827 C   0  0  0  0  0  0  0  0  0  0  0  0
   -4.6097    5.9442  -15.6939 C   0  0  0  0  0  0  0  0  0  0  0  0
   -3.9311    6.0672  -16.8337 N   0  0  0  0  0  0  0  0  0  0  0  0
   -4.7874    5.5913  -17.7770 N   0  0  0  0  0  0  0  0  0  0  0  0
   -4.4122    5.7856  -19.1617 C   0  0  0  0  0  0  0  0  0  0  0  0
   -5.1987    5.0324  -20.2319 C   0  0  0  0  0  0  0  0  0  0  0  0
   -4.2496    4.8205  -21.4114 C   0  0  0  0  0  0  0  0  0  0  0  0
   -2.9114    5.4111  -20.9918 C   0  0  0  0  0  0  0  0  0  0  0  0
   -2.9541    5.4260  -19.4729 C   0  0  0  0  0  0  0  0  0  0  0  0
   -8.5238    3.2507  -10.9031 C   0  0  0  0  0  0  0  0  0  0  0  0
   -8.7150    3.2325   -9.5403 C   0  0  0  0  0  0  0  0  0  0  0  0
   -9.4609    2.2576   -8.7609 C   0  0  0  0  0  0  0  0  0  0  0  0
   -9.9880    1.2702   -9.2253 O   0  0  0  0  0  0  0  0  0  0  0  0
  1  2  1  0
  2  3  1  0
  3  4  1  0
  4  5  1  0
  5  6  2  0
  6  7  1  0
  7  8  2  0
  8  9  1  0
  9 10  1  0
 10 11  2  0
 10 12  1  0
 12 13  2  0
 13 14  1  0
 14 15  1  0
 15 16  1  0
 16 17  1  0
 14 18  2  0
 18 19  1  0
 19 20  2  0
 20 21  1  0
 21 22  2  0
 22 23  1  0
 23 24  1  0
 24 25  1  0
 25 26  1  0
 26 27  1  0
 27 28  1  0
  8 29  1  0
 29 30  2  0
 30 31  1  0
 31 32  2  0
 31  3  1  0
 30  5  1  0
 20 12  1  0
 28 24  1  0
 17 15  1  0
 23 19  1  0
M  END
>  <name>  (671) 
P125495

>  <alias>  (671) 
None

>  <smina_score_min>  (671) 
-9.319

>  <exports>  (671) 
['/opt/xchem-fragalysis-2/maxwin/BulkDock/OUTPUTS/openbind_xx01zvns2b_c2_elabs_1LOUTNY.sdf', '/opt/xchem-fragalysis-2/maxwin/BulkDock/OUTPUTS/openbind_xx01zvns2b_c2_elabs_1LSYIIV.sdf']

>  <tags>  (671) 
syndirella_placed,openbind_xx01zvns2b_c2_elabs,openbind_xx01zvns2b_c2_elabs_scored_6.2plus,syndirella_product,openbind_xx01zvns2b_c2_elabs_scored,openbind_xx01zvns2b_c2_elabs_scored_top80percent,BulkDock Fragalysis export

>  <subsites>  (671) 
1 - Z4590/B/203/1

>  <smiles>  (671) 
CCN1Cc2ccc(NC(=O)c3cc(C4CC4)nc4c3cnn4C3CCCC3)cc2C1=O

>  <HIPPO Pose ID>  (671) 
125495

>  <energy_score>  (671) 
-29.033881

>  <inchikey>  (671) 
GRMQEKJBUDKAJB-UHFFFAOYSA-N

>  <gnina_score_min>  (671) 
6.263

>  <gnina_score>  (671) 
6.434

>  <ref_mols>  (671) 
Z3559a

>  <HIPPO Compound ID>  (671) 
178963

>  <distance_score>  (671) 
0.511097

>  <rmsd(smina/fragmenstein)>  (671) 
0.472

>  <ref_pdb>  (671) 
Z3559a

>  <inspiration_score>  (671) 
None

$$$$
P125496
     RDKit          3D

 32 37  0  0  0  0  0  0  0  0999 V2000
   -5.3962    7.0174  -19.7073 C   0  0  0  0  0  0  0  0  0  0  0  0
   -4.7408    5.6983  -19.2908 C   0  0  1  0  0  0  0  0  0  0  0  0
   -3.2764    5.6603  -19.7149 C   0  0  0  0  0  0  0  0  0  0  0  0
   -2.8301    6.0898  -21.1012 C   0  0  0  0  0  0  0  0  0  0  0  0
   -2.7874    4.6440  -20.7238 C   0  0  0  0  0  0  0  0  0  0  0  0
   -4.9371    5.5224  -17.8377 N   0  0  0  0  0  0  0  0  0  0  0  0
   -4.0695    6.0728  -16.9457 N   0  0  0  0  0  0  0  0  0  0  0  0
   -4.6990    5.9437  -15.7740 C   0  0  0  0  0  0  0  0  0  0  0  0
   -5.9666    5.3404  -15.8938 C   0  0  0  0  0  0  0  0  0  0  0  0
   -7.0581    5.0392  -15.0701 C   0  0  0  0  0  0  0  0  0  0  0  0
   -7.0629    5.5282  -13.6725 C   0  0  0  0  0  0  0  0  0  0  0  0
   -6.6171    6.5910  -13.4808 O   0  0  0  0  0  0  0  0  0  0  0  0
   -7.6737    4.5047  -12.6868 N   0  0  0  0  0  0  0  0  0  0  0  0
   -7.9407    4.6097  -11.3223 C   0  0  0  0  0  0  0  0  0  0  0  0
   -7.7073    5.8211  -10.6484 C   0  0  0  0  0  0  0  0  0  0  0  0
   -7.9170    5.9408   -9.2719 C   0  0  0  0  0  0  0  0  0  0  0  0
   -8.3620    4.8331   -8.5777 C   0  0  0  0  0  0  0  0  0  0  0  0
   -8.6182    3.6321   -9.2536 C   0  0  0  0  0  0  0  0  0  0  0  0
   -8.4162    3.4998  -10.6221 C   0  0  0  0  0  0  0  0  0  0  0  0
   -9.0726    2.6013   -8.2719 C   0  0  0  0  0  0  0  0  0  0  0  0
   -9.3220    3.3745   -7.0348 N   0  0  0  0  0  0  0  0  0  0  0  0
   -9.1920    2.5662   -5.8504 C   0  0  0  0  0  0  0  0  0  0  0  0
   -8.5470    4.6351   -7.0885 C   0  0  0  0  0  0  0  0  0  0  0  0
   -7.1428    4.6436   -6.4551 C   0  0  0  0  0  0  0  0  0  0  0  0
   -9.3423    5.7319   -6.3544 C   0  0  0  0  0  0  0  0  0  0  0  0
   -8.1862    4.4656  -15.6638 C   0  0  0  0  0  0  0  0  0  0  0  0
   -8.2093    4.2373  -17.0460 C   0  0  0  0  0  0  0  0  0  0  0  0
   -9.4888    3.7461  -17.6898 C   0  0  0  0  0  0  0  0  0  0  0  0
   -9.7511    3.9664  -19.1580 C   0  0  0  0  0  0  0  0  0  0  0  0
   -9.4498    2.5872  -18.6534 C   0  0  0  0  0  0  0  0  0  0  0  0
   -7.1567    4.5228  -17.8546 N   0  0  0  0  0  0  0  0  0  0  0  0
   -6.0892    5.0591  -17.2417 C   0  0  0  0  0  0  0  0  0  0  0  0
  2  1  1  1
  2  3  1  0
  3  4  1  0
  4  5  1  0
  2  6  1  0
  6  7  1  0
  7  8  2  0
  8  9  1  0
  9 10  2  0
 10 11  1  0
 11 12  2  0
 11 13  1  0
 13 14  1  0
 14 15  2  0
 15 16  1  0
 16 17  2  0
 17 18  1  0
 18 19  2  0
 18 20  1  0
 20 21  1  0
 21 22  1  0
 21 23  1  0
 23 24  1  0
 23 25  1  0
 10 26  1  0
 26 27  2  0
 27 28  1  0
 28 29  1  0
 29 30  1  0
 27 31  1  0
 31 32  2  0
  5  3  1  0
 32  6  1  0
 32  9  1  0
 19 14  1  0
 30 28  1  0
 23 17  1  0
M  END
>  <name>  (672) 
P125496

>  <alias>  (672) 
None

>  <smina_score_min>  (672) 
-8.663

>  <exports>  (672) 
['/opt/xchem-fragalysis-2/maxwin/BulkDock/OUTPUTS/openbind_xx01zvns2b_c2_elabs_1LOUTNY.sdf', '/opt/xchem-fragalysis-2/maxwin/BulkDock/OUTPUTS/openbind_xx01zvns2b_c2_elabs_1LSYIIV.sdf']

>  <tags>  (672) 
syndirella_placed,openbind_xx01zvns2b_c2_elabs,openbind_xx01zvns2b_c2_elabs_scored_6.2plus,syndirella_product,openbind_xx01zvns2b_c2_elabs_scored,openbind_xx01zvns2b_c2_elabs_scored_top80percent,BulkDock Fragalysis export

>  <subsites>  (672) 
1 - Z4590/B/203/1

>  <smiles>  (672) 
C[C@@H](C1CC1)n1ncc2c(C(=O)Nc3ccc4c(c3)CN(C)C4(C)C)cc(C3CC3)nc21

>  <HIPPO Pose ID>  (672) 
125496

>  <energy_score>  (672) 
-77.652977

>  <inchikey>  (672) 
AMJMMTKWBJZLQF-HNNXBMFYSA-N

>  <gnina_score_min>  (672) 
6.434

>  <gnina_score>  (672) 
6.412

>  <ref_mols>  (672) 
Z3559a

>  <HIPPO Compound ID>  (672) 
179351

>  <distance_score>  (672) 
0.622522

>  <rmsd(smina/fragmenstein)>  (672) 
0.377

>  <ref_pdb>  (672) 
Z3559a

>  <inspiration_score>  (672) 
None

$$$$
P125498
     RDKit          3D

 32 36  0  0  0  0  0  0  0  0999 V2000
  -11.5445    2.5216   -5.2031 C   0  0  0  0  0  0  0  0  0  0  0  0
  -10.0796    2.8652   -5.0500 C   0  0  0  0  0  0  0  0  0  0  0  0
   -9.2571    2.2223   -6.1668 C   0  0  0  0  0  0  0  0  0  0  0  0
   -9.4141    2.9799   -7.3916 N   0  0  0  0  0  0  0  0  0  0  0  0
   -8.6296    4.2243   -7.3682 C   0  0  0  0  0  0  0  0  0  0  0  0
   -8.2931    4.4609   -8.7952 C   0  0  0  0  0  0  0  0  0  0  0  0
   -7.8293    5.6149   -9.3856 C   0  0  0  0  0  0  0  0  0  0  0  0
   -7.5919    5.5806  -10.7534 C   0  0  0  0  0  0  0  0  0  0  0  0
   -7.8109    4.4057  -11.4946 C   0  0  0  0  0  0  0  0  0  0  0  0
   -7.5539    4.3936  -12.8565 N   0  0  0  0  0  0  0  0  0  0  0  0
   -7.1661    5.5370  -13.8111 C   0  0  0  0  0  0  0  0  0  0  0  0
   -6.9259    6.6566  -13.5915 O   0  0  0  0  0  0  0  0  0  0  0  0
   -7.0965    5.0714  -15.1980 C   0  0  0  0  0  0  0  0  0  0  0  0
   -8.2127    4.5071  -15.8125 C   0  0  0  0  0  0  0  0  0  0  0  0
   -8.1879    4.2600  -17.1840 C   0  0  0  0  0  0  0  0  0  0  0  0
   -9.4579    3.7709  -17.8467 C   0  0  0  0  0  0  0  0  0  0  0  0
   -9.4400    2.5267  -18.6939 C   0  0  0  0  0  0  0  0  0  0  0  0
   -9.6365    3.8665  -19.3376 C   0  0  0  0  0  0  0  0  0  0  0  0
   -7.0991    4.5270  -17.9553 N   0  0  0  0  0  0  0  0  0  0  0  0
   -6.0416    5.0509  -17.3106 C   0  0  0  0  0  0  0  0  0  0  0  0
   -5.9574    5.3376  -15.9600 C   0  0  0  0  0  0  0  0  0  0  0  0
   -4.6547    5.8653  -15.7733 C   0  0  0  0  0  0  0  0  0  0  0  0
   -4.0072    6.3211  -14.5171 C   0  0  0  0  0  0  0  0  0  0  0  0
   -3.9792    5.9308  -16.9277 N   0  0  0  0  0  0  0  0  0  0  0  0
   -4.8509    5.4570  -17.8498 N   0  0  0  0  0  0  0  0  0  0  0  0
   -4.4245    5.5033  -19.2272 C   0  0  0  0  0  0  0  0  0  0  0  0
   -5.4822    5.2859  -20.2763 C   0  0  0  0  0  0  0  0  0  0  0  0
   -5.0158    5.7989  -21.4535 F   0  0  0  0  0  0  0  0  0  0  0  0
   -5.6600    3.9602  -20.5117 F   0  0  0  0  0  0  0  0  0  0  0  0
   -8.2739    3.2407  -10.8810 C   0  0  0  0  0  0  0  0  0  0  0  0
   -8.5149    3.2906   -9.5235 C   0  0  0  0  0  0  0  0  0  0  0  0
   -9.0151    2.2265   -8.5991 C   0  0  0  0  0  0  0  0  0  0  0  0
  1  2  1  0
  2  3  1  0
  3  4  1  0
  4  5  1  0
  5  6  1  0
  6  7  2  0
  7  8  1  0
  8  9  2  0
  9 10  1  0
 10 11  1  0
 11 12  2  0
 11 13  1  0
 13 14  2  0
 14 15  1  0
 15 16  1  0
 16 17  1  0
 17 18  1  0
 15 19  2  0
 19 20  1  0
 20 21  2  0
 21 22  1  0
 22 23  1  0
 22 24  2  0
 24 25  1  0
 25 26  1  0
 26 27  1  0
 27 28  1  0
 27 29  1  0
  9 30  1  0
 30 31  2  0
 31 32  1  0
 32  4  1  0
 31  6  1  0
 21 13  1  0
 18 16  1  0
 25 20  1  0
M  END
>  <name>  (673) 
P125498

>  <alias>  (673) 
None

>  <smina_score_min>  (673) 
-8.28

>  <exports>  (673) 
['/opt/xchem-fragalysis-2/maxwin/BulkDock/OUTPUTS/openbind_xx01zvns2b_c2_elabs_1LOUTNY.sdf', '/opt/xchem-fragalysis-2/maxwin/BulkDock/OUTPUTS/openbind_xx01zvns2b_c2_elabs_1LSYIIV.sdf']

>  <tags>  (673) 
syndirella_placed,openbind_xx01zvns2b_c2_elabs,openbind_xx01zvns2b_c2_elabs_scored_6.2plus,syndirella_product,openbind_xx01zvns2b_c2_elabs_scored,openbind_xx01zvns2b_c2_elabs_scored_top80percent,BulkDock Fragalysis export

>  <subsites>  (673) 
1 - Z4590/B/203/1

>  <smiles>  (673) 
CCCN1Cc2ccc(NC(=O)c3cc(C4CC4)nc4c3c(C)nn4CC(F)F)cc2C1

>  <HIPPO Pose ID>  (673) 
125498

>  <energy_score>  (673) 
-38.606898

>  <inchikey>  (673) 
UIYKBNXKATYVSS-UHFFFAOYSA-N

>  <gnina_score_min>  (673) 
6.374

>  <gnina_score>  (673) 
6.337

>  <ref_mols>  (673) 
Z3559a

>  <HIPPO Compound ID>  (673) 
179317

>  <distance_score>  (673) 
0.559674

>  <rmsd(smina/fragmenstein)>  (673) 
1.097

>  <ref_pdb>  (673) 
Z3559a

>  <inspiration_score>  (673) 
None

$$$$
P125499
     RDKit          3D

 32 36  0  0  0  0  0  0  0  0999 V2000
  -10.6986    2.6698   -5.3601 C   0  0  0  0  0  0  0  0  0  0  0  0
   -9.9008    1.9060   -6.3931 C   0  0  0  0  0  0  0  0  0  0  0  0
   -9.4750    2.7372   -7.4874 N   0  0  0  0  0  0  0  0  0  0  0  0
   -8.6560    3.9196   -7.3145 C   0  0  0  0  0  0  0  0  0  0  0  0
   -8.2643    4.2400   -8.7164 C   0  0  0  0  0  0  0  0  0  0  0  0
   -7.5960    5.3289   -9.2336 C   0  0  0  0  0  0  0  0  0  0  0  0
   -7.3682    5.3593  -10.6158 C   0  0  0  0  0  0  0  0  0  0  0  0
   -7.7913    4.3055  -11.4505 C   0  0  0  0  0  0  0  0  0  0  0  0
   -7.5516    4.3243  -12.8169 N   0  0  0  0  0  0  0  0  0  0  0  0
   -7.0053    5.4454  -13.7222 C   0  0  0  0  0  0  0  0  0  0  0  0
   -6.5982    6.5043  -13.4520 O   0  0  0  0  0  0  0  0  0  0  0  0
   -7.0446    5.0483  -15.1441 C   0  0  0  0  0  0  0  0  0  0  0  0
   -8.2050    4.5061  -15.7154 C   0  0  0  0  0  0  0  0  0  0  0  0
   -8.2683    4.2784  -17.0919 C   0  0  0  0  0  0  0  0  0  0  0  0
   -9.5515    3.7725  -17.7105 C   0  0  0  0  0  0  0  0  0  0  0  0
   -9.8270    3.9616  -19.1805 C   0  0  0  0  0  0  0  0  0  0  0  0
   -9.5120    2.5945  -18.6518 C   0  0  0  0  0  0  0  0  0  0  0  0
   -7.2385    4.5703  -17.9171 N   0  0  0  0  0  0  0  0  0  0  0  0
   -6.1554    5.0946  -17.3299 C   0  0  0  0  0  0  0  0  0  0  0  0
   -5.9627    5.3394  -15.9838 C   0  0  0  0  0  0  0  0  0  0  0  0
   -4.6385    5.8535  -15.9029 C   0  0  0  0  0  0  0  0  0  0  0  0
   -3.8669    6.2470  -14.6971 C   0  0  0  0  0  0  0  0  0  0  0  0
   -4.0727    5.9747  -17.1157 N   0  0  0  0  0  0  0  0  0  0  0  0
   -5.0390    5.5547  -17.9615 N   0  0  0  0  0  0  0  0  0  0  0  0
   -4.8680    5.7135  -19.3864 C   0  0  0  0  0  0  0  0  0  0  0  0
   -4.7434    7.1759  -19.7412 C   0  0  0  0  0  0  0  0  0  0  0  0
   -5.9027    7.8463  -19.4916 F   0  0  0  0  0  0  0  0  0  0  0  0
   -4.5162    7.3072  -21.0763 F   0  0  0  0  0  0  0  0  0  0  0  0
   -8.4662    3.2126  -10.9238 C   0  0  0  0  0  0  0  0  0  0  0  0
   -8.6947    3.2235   -9.5662 C   0  0  0  0  0  0  0  0  0  0  0  0
   -9.4504    2.2594   -8.7812 C   0  0  0  0  0  0  0  0  0  0  0  0
   -9.9726    1.2657   -9.2377 O   0  0  0  0  0  0  0  0  0  0  0  0
  1  2  1  0
  2  3  1  0
  3  4  1  0
  4  5  1  0
  5  6  2  0
  6  7  1  0
  7  8  2  0
  8  9  1  0
  9 10  1  0
 10 11  2  0
 10 12  1  0
 12 13  2  0
 13 14  1  0
 14 15  1  0
 15 16  1  0
 16 17  1  0
 14 18  2  0
 18 19  1  0
 19 20  2  0
 20 21  1  0
 21 22  1  0
 21 23  2  0
 23 24  1  0
 24 25  1  0
 25 26  1  0
 26 27  1  0
 26 28  1  0
  8 29  1  0
 29 30  2  0
 30 31  1  0
 31 32  2  0
 31  3  1  0
 30  5  1  0
 20 12  1  0
 17 15  1  0
 24 19  1  0
M  END
>  <name>  (674) 
P125499

>  <alias>  (674) 
None

>  <smina_score_min>  (674) 
-8.497

>  <exports>  (674) 
['/opt/xchem-fragalysis-2/maxwin/BulkDock/OUTPUTS/openbind_xx01zvns2b_c2_elabs_1LOUTNY.sdf', '/opt/xchem-fragalysis-2/maxwin/BulkDock/OUTPUTS/openbind_xx01zvns2b_c2_elabs_1LSYIIV.sdf']

>  <tags>  (674) 
syndirella_placed,openbind_xx01zvns2b_c2_elabs,openbind_xx01zvns2b_c2_elabs_scored_6.2plus,syndirella_product,openbind_xx01zvns2b_c2_elabs_scored,openbind_xx01zvns2b_c2_elabs_scored_top80percent,BulkDock Fragalysis export

>  <subsites>  (674) 
1 - Z4590/B/203/1

>  <smiles>  (674) 
CCN1Cc2ccc(NC(=O)c3cc(C4CC4)nc4c3c(C)nn4CC(F)F)cc2C1=O

>  <HIPPO Pose ID>  (674) 
125499

>  <energy_score>  (674) 
-55.224246

>  <inchikey>  (674) 
BONBKLONLOSJCX-UHFFFAOYSA-N

>  <gnina_score_min>  (674) 
6.223

>  <gnina_score>  (674) 
6.362

>  <ref_mols>  (674) 
Z3559a

>  <HIPPO Compound ID>  (674) 
179318

>  <distance_score>  (674) 
0.493853

>  <rmsd(smina/fragmenstein)>  (674) 
0.532

>  <ref_pdb>  (674) 
Z3559a

>  <inspiration_score>  (674) 
None

$$$$
P125500
     RDKit          3D

 32 36  0  0  0  0  0  0  0  0999 V2000
   -3.9834    6.3332  -14.6212 C   0  0  0  0  0  0  0  0  0  0  0  0
   -4.7183    5.8629  -15.8224 C   0  0  0  0  0  0  0  0  0  0  0  0
   -4.1149    5.9036  -17.0250 N   0  0  0  0  0  0  0  0  0  0  0  0
   -5.0699    5.4644  -17.8714 N   0  0  0  0  0  0  0  0  0  0  0  0
   -4.8603    5.4534  -19.3007 C   0  0  0  0  0  0  0  0  0  0  0  0
   -5.1176    6.7999  -19.9375 C   0  0  0  0  0  0  0  0  0  0  0  0
   -4.0382    7.6128  -19.7875 F   0  0  0  0  0  0  0  0  0  0  0  0
   -6.1669    7.4572  -19.3858 F   0  0  0  0  0  0  0  0  0  0  0  0
   -6.2006    5.0363  -17.2405 C   0  0  0  0  0  0  0  0  0  0  0  0
   -7.2689    4.4913  -17.8351 N   0  0  0  0  0  0  0  0  0  0  0  0
   -8.3215    4.2429  -17.0261 C   0  0  0  0  0  0  0  0  0  0  0  0
   -9.5966    3.7538  -17.6730 C   0  0  0  0  0  0  0  0  0  0  0  0
   -9.5494    2.5907  -18.6329 C   0  0  0  0  0  0  0  0  0  0  0  0
   -9.8435    3.9681  -19.1460 C   0  0  0  0  0  0  0  0  0  0  0  0
   -8.2880    4.5100  -15.6543 C   0  0  0  0  0  0  0  0  0  0  0  0
   -7.1429    5.0759  -15.0740 C   0  0  0  0  0  0  0  0  0  0  0  0
   -7.1761    5.5902  -13.6879 C   0  0  0  0  0  0  0  0  0  0  0  0
   -6.7912    6.6786  -13.5116 O   0  0  0  0  0  0  0  0  0  0  0  0
   -7.8037    4.5769  -12.7023 N   0  0  0  0  0  0  0  0  0  0  0  0
   -7.9945    4.6543  -11.3232 C   0  0  0  0  0  0  0  0  0  0  0  0
   -7.7502    5.8598  -10.6436 C   0  0  0  0  0  0  0  0  0  0  0  0
   -7.9273    5.9637   -9.2616 C   0  0  0  0  0  0  0  0  0  0  0  0
   -8.3557    4.8481   -8.5693 C   0  0  0  0  0  0  0  0  0  0  0  0
   -8.6150    3.6504   -9.2494 C   0  0  0  0  0  0  0  0  0  0  0  0
   -8.4381    3.5315  -10.6221 C   0  0  0  0  0  0  0  0  0  0  0  0
   -9.0610    2.6136   -8.2704 C   0  0  0  0  0  0  0  0  0  0  0  0
   -9.3087    3.3815   -7.0301 N   0  0  0  0  0  0  0  0  0  0  0  0
   -9.1779    2.5707   -5.8480 C   0  0  0  0  0  0  0  0  0  0  0  0
   -8.5356    4.6435   -7.0807 C   0  0  0  0  0  0  0  0  0  0  0  0
   -7.1304    4.6517   -6.4505 C   0  0  0  0  0  0  0  0  0  0  0  0
   -9.3327    5.7364   -6.3428 C   0  0  0  0  0  0  0  0  0  0  0  0
   -6.0390    5.3345  -15.9018 C   0  0  0  0  0  0  0  0  0  0  0  0
  1  2  1  0
  2  3  2  0
  3  4  1  0
  4  5  1  0
  5  6  1  0
  6  7  1  0
  6  8  1  0
  4  9  1  0
  9 10  2  0
 10 11  1  0
 11 12  1  0
 12 13  1  0
 13 14  1  0
 11 15  2  0
 15 16  1  0
 16 17  1  0
 17 18  2  0
 17 19  1  0
 19 20  1  0
 20 21  2  0
 21 22  1  0
 22 23  2  0
 23 24  1  0
 24 25  2  0
 24 26  1  0
 26 27  1  0
 27 28  1  0
 27 29  1  0
 29 30  1  0
 29 31  1  0
 16 32  2  0
 32  2  1  0
 32  9  1  0
 14 12  1  0
 25 20  1  0
 29 23  1  0
M  END
>  <name>  (675) 
P125500

>  <alias>  (675) 
None

>  <smina_score_min>  (675) 
-8.205

>  <exports>  (675) 
['/opt/xchem-fragalysis-2/maxwin/BulkDock/OUTPUTS/openbind_xx01zvns2b_c2_elabs_1LOUTNY.sdf', '/opt/xchem-fragalysis-2/maxwin/BulkDock/OUTPUTS/openbind_xx01zvns2b_c2_elabs_1LSYIIV.sdf']

>  <tags>  (675) 
syndirella_placed,openbind_xx01zvns2b_c2_elabs,openbind_xx01zvns2b_c2_elabs_scored_6.2plus,syndirella_product,openbind_xx01zvns2b_c2_elabs_scored,openbind_xx01zvns2b_c2_elabs_scored_top80percent,BulkDock Fragalysis export

>  <subsites>  (675) 
1 - Z4590/B/203/1

>  <smiles>  (675) 
Cc1nn(CC(F)F)c2nc(C3CC3)cc(C(=O)Nc3ccc4c(c3)CN(C)C4(C)C)c12

>  <HIPPO Pose ID>  (675) 
125500

>  <energy_score>  (675) 
-61.632708

>  <inchikey>  (675) 
KIFOCWQLYBQFDY-UHFFFAOYSA-N

>  <gnina_score_min>  (675) 
6.3

>  <gnina_score>  (675) 
6.365

>  <ref_mols>  (675) 
Z3559a

>  <HIPPO Compound ID>  (675) 
179319

>  <distance_score>  (675) 
0.620883

>  <rmsd(smina/fragmenstein)>  (675) 
0.32

>  <ref_pdb>  (675) 
Z3559a

>  <inspiration_score>  (675) 
None

$$$$
P125501
     RDKit          3D

 32 37  0  0  0  0  0  0  0  0999 V2000
   -8.0641    4.4140   -6.3744 O   0  0  0  0  0  0  0  0  0  0  0  0
   -8.4151    3.7203   -7.3110 C   0  0  0  0  0  0  0  0  0  0  0  0
   -9.0442    2.5173   -7.2872 N   0  0  0  0  0  0  0  0  0  0  0  0
   -9.3074    2.0518   -8.5399 C   0  0  0  0  0  0  0  0  0  0  0  0
   -9.9634    1.0771   -8.8378 O   0  0  0  0  0  0  0  0  0  0  0  0
   -8.7291    3.0115   -9.4851 C   0  0  0  0  0  0  0  0  0  0  0  0
   -8.6616    3.0079  -10.8754 C   0  0  0  0  0  0  0  0  0  0  0  0
   -8.0849    4.1210  -11.4991 C   0  0  0  0  0  0  0  0  0  0  0  0
   -7.9263    4.1709  -12.8931 N   0  0  0  0  0  0  0  0  0  0  0  0
   -7.3606    5.2918  -13.8024 C   0  0  0  0  0  0  0  0  0  0  0  0
   -7.0106    6.3768  -13.5396 O   0  0  0  0  0  0  0  0  0  0  0  0
   -7.1727    4.8988  -15.2279 C   0  0  0  0  0  0  0  0  0  0  0  0
   -8.1833    4.3707  -16.0534 C   0  0  0  0  0  0  0  0  0  0  0  0
   -7.9844    4.3101  -17.4497 C   0  0  0  0  0  0  0  0  0  0  0  0
   -8.9842    3.8347  -18.4712 C   0  0  0  0  0  0  0  0  0  0  0  0
   -9.5486    2.4538  -18.3541 C   0  0  0  0  0  0  0  0  0  0  0  0
  -10.4459    3.6631  -18.2402 C   0  0  0  0  0  0  0  0  0  0  0  0
   -6.8583    4.7535  -18.0388 N   0  0  0  0  0  0  0  0  0  0  0  0
   -5.9181    5.2202  -17.2232 C   0  0  0  0  0  0  0  0  0  0  0  0
   -5.9779    5.3089  -15.8507 C   0  0  0  0  0  0  0  0  0  0  0  0
   -4.7451    5.9068  -15.5035 C   0  0  0  0  0  0  0  0  0  0  0  0
   -3.9935    6.2272  -16.5667 N   0  0  0  0  0  0  0  0  0  0  0  0
   -4.7613    5.8345  -17.6187 N   0  0  0  0  0  0  0  0  0  0  0  0
   -4.5899    6.4545  -18.9264 C   0  0  0  0  0  0  0  0  0  0  0  0
   -3.9170    5.6082  -19.9521 C   0  0  0  0  0  0  0  0  0  0  0  0
   -2.5014    5.4116  -20.0427 C   0  0  0  0  0  0  0  0  0  0  0  0
   -2.1380    4.7195  -21.1751 C   0  0  0  0  0  0  0  0  0  0  0  0
   -3.4875    4.2660  -22.1177 S   0  0  0  0  0  0  0  0  0  0  0  0
   -4.5675    4.9869  -21.0051 C   0  0  0  0  0  0  0  0  0  0  0  0
   -7.6151    5.1979  -10.7084 C   0  0  0  0  0  0  0  0  0  0  0  0
   -7.6769    5.1719   -9.3086 C   0  0  0  0  0  0  0  0  0  0  0  0
   -8.2291    4.0545   -8.7250 C   0  0  0  0  0  0  0  0  0  0  0  0
  1  2  2  0
  2  3  1  0
  3  4  1  0
  4  5  2  0
  4  6  1  0
  6  7  2  0
  7  8  1  0
  8  9  1  0
  9 10  1  0
 10 11  2  0
 10 12  1  0
 12 13  2  0
 13 14  1  0
 14 15  1  0
 15 16  1  0
 16 17  1  0
 14 18  2  0
 18 19  1  0
 19 20  2  0
 20 21  1  0
 21 22  2  0
 22 23  1  0
 23 24  1  0
 24 25  1  0
 25 26  1  0
 26 27  2  0
 27 28  1  0
 28 29  1  0
  8 30  2  0
 30 31  1  0
 31 32  2  0
 32  2  1  0
 32  6  1  0
 20 12  1  0
 29 25  2  0
 17 15  1  0
 23 19  1  0
M  END
>  <name>  (676) 
P125501

>  <alias>  (676) 
None

>  <smina_score_min>  (676) 
-9.885

>  <exports>  (676) 
['/opt/xchem-fragalysis-2/maxwin/BulkDock/OUTPUTS/openbind_xx01zvns2b_c2_elabs_1LOUTNY.sdf', '/opt/xchem-fragalysis-2/maxwin/BulkDock/OUTPUTS/openbind_xx01zvns2b_c2_elabs_1LSYIIV.sdf']

>  <tags>  (676) 
syndirella_placed,openbind_xx01zvns2b_c2_elabs,openbind_xx01zvns2b_c2_elabs_scored_6.2plus,syndirella_product,openbind_xx01zvns2b_c2_elabs_scored,openbind_xx01zvns2b_c2_elabs_scored_top80percent,BulkDock Fragalysis export

>  <subsites>  (676) 
1 - Z4590/B/203/1

>  <smiles>  (676) 
O=C1NC(=O)c2cc(NC(=O)c3cc(C4CC4)nc4c3cnn4Cc3ccsc3)ccc21

>  <HIPPO Pose ID>  (676) 
125501

>  <energy_score>  (676) 
-57.171808

>  <inchikey>  (676) 
LPPBSOVONVUDBJ-UHFFFAOYSA-N

>  <gnina_score_min>  (676) 
6.546

>  <gnina_score>  (676) 
6.63

>  <ref_mols>  (676) 
Z3559a

>  <HIPPO Compound ID>  (676) 
179179

>  <distance_score>  (676) 
0.58633

>  <rmsd(smina/fragmenstein)>  (676) 
0.923

>  <ref_pdb>  (676) 
Z3559a

>  <inspiration_score>  (676) 
None

$$$$
P125502
     RDKit          3D

 32 36  0  0  0  0  0  0  0  0999 V2000
  -10.7967    2.8062   -5.4399 C   0  0  0  0  0  0  0  0  0  0  0  0
   -9.5983    2.1852   -6.1313 C   0  0  0  0  0  0  0  0  0  0  0  0
   -9.2511    2.8673   -7.3480 N   0  0  0  0  0  0  0  0  0  0  0  0
   -9.0743    2.1539   -8.6039 C   0  0  0  0  0  0  0  0  0  0  0  0
   -8.5575    3.2313   -9.4982 C   0  0  0  0  0  0  0  0  0  0  0  0
   -8.3136    3.2221  -10.8597 C   0  0  0  0  0  0  0  0  0  0  0  0
   -7.8719    4.4124  -11.4521 C   0  0  0  0  0  0  0  0  0  0  0  0
   -7.6179    4.4349  -12.8176 N   0  0  0  0  0  0  0  0  0  0  0  0
   -7.2272    5.6049  -13.7456 C   0  0  0  0  0  0  0  0  0  0  0  0
   -6.9823    6.7182  -13.4969 O   0  0  0  0  0  0  0  0  0  0  0  0
   -7.1001    5.1606  -15.1429 C   0  0  0  0  0  0  0  0  0  0  0  0
   -8.1307    4.4616  -15.7752 C   0  0  0  0  0  0  0  0  0  0  0  0
   -8.0046    4.1224  -17.1218 C   0  0  0  0  0  0  0  0  0  0  0  0
   -9.0474    3.2470  -17.7586 C   0  0  0  0  0  0  0  0  0  0  0  0
   -9.0320    3.0058  -19.2423 C   0  0  0  0  0  0  0  0  0  0  0  0
  -10.1398    3.8092  -18.6296 C   0  0  0  0  0  0  0  0  0  0  0  0
   -6.9413    4.4931  -17.8720 N   0  0  0  0  0  0  0  0  0  0  0  0
   -5.9749    5.1561  -17.2243 C   0  0  0  0  0  0  0  0  0  0  0  0
   -5.9638    5.5052  -15.8858 C   0  0  0  0  0  0  0  0  0  0  0  0
   -4.7135    6.1492  -15.6948 C   0  0  0  0  0  0  0  0  0  0  0  0
   -4.1322    6.7088  -14.4483 C   0  0  0  0  0  0  0  0  0  0  0  0
   -4.0180    6.2331  -16.8371 N   0  0  0  0  0  0  0  0  0  0  0  0
   -4.8108    5.6331  -17.7556 N   0  0  0  0  0  0  0  0  0  0  0  0
   -4.3361    5.5829  -19.1193 C   0  0  0  0  0  0  0  0  0  0  0  0
   -5.3787    5.3866  -20.1938 C   0  0  0  0  0  0  0  0  0  0  0  0
   -5.5213    4.0658  -20.4708 F   0  0  0  0  0  0  0  0  0  0  0  0
   -4.9055    5.9563  -21.3422 F   0  0  0  0  0  0  0  0  0  0  0  0
   -7.6725    5.5757  -10.6823 C   0  0  0  0  0  0  0  0  0  0  0  0
   -7.8954    5.5710   -9.3094 C   0  0  0  0  0  0  0  0  0  0  0  0
   -8.3346    4.3902   -8.7550 C   0  0  0  0  0  0  0  0  0  0  0  0
   -8.7034    4.1324   -7.3662 C   0  0  0  0  0  0  0  0  0  0  0  0
   -8.5481    4.9214   -6.4524 O   0  0  0  0  0  0  0  0  0  0  0  0
  1  2  1  0
  2  3  1  0
  3  4  1  0
  4  5  1  0
  5  6  2  0
  6  7  1  0
  7  8  1  0
  8  9  1  0
  9 10  2  0
  9 11  1  0
 11 12  2  0
 12 13  1  0
 13 14  1  0
 14 15  1  0
 15 16  1  0
 13 17  2  0
 17 18  1  0
 18 19  2  0
 19 20  1  0
 20 21  1  0
 20 22  2  0
 22 23  1  0
 23 24  1  0
 24 25  1  0
 25 26  1  0
 25 27  1  0
  7 28  2  0
 28 29  1  0
 29 30  2  0
 30 31  1  0
 31 32  2  0
 31  3  1  0
 30  5  1  0
 19 11  1  0
 16 14  1  0
 23 18  1  0
M  END
>  <name>  (677) 
P125502

>  <alias>  (677) 
None

>  <smina_score_min>  (677) 
-9.025

>  <exports>  (677) 
['/opt/xchem-fragalysis-2/maxwin/BulkDock/OUTPUTS/openbind_xx01zvns2b_c2_elabs_1LOUTNY.sdf', '/opt/xchem-fragalysis-2/maxwin/BulkDock/OUTPUTS/openbind_xx01zvns2b_c2_elabs_1LSYIIV.sdf']

>  <tags>  (677) 
syndirella_placed,openbind_xx01zvns2b_c2_elabs,openbind_xx01zvns2b_c2_elabs_scored_6.2plus,syndirella_product,openbind_xx01zvns2b_c2_elabs_scored,openbind_xx01zvns2b_c2_elabs_scored_top80percent,BulkDock Fragalysis export

>  <subsites>  (677) 
1 - Z4590/B/203/1

>  <smiles>  (677) 
CCN1Cc2cc(NC(=O)c3cc(C4CC4)nc4c3c(C)nn4CC(F)F)ccc2C1=O

>  <HIPPO Pose ID>  (677) 
125502

>  <energy_score>  (677) 
-36.633734

>  <inchikey>  (677) 
PBRAWHPFYZBLPU-UHFFFAOYSA-N

>  <gnina_score_min>  (677) 
6.531

>  <gnina_score>  (677) 
6.312

>  <ref_mols>  (677) 
Z3559a

>  <HIPPO Compound ID>  (677) 
179363

>  <distance_score>  (677) 
0.596471

>  <rmsd(smina/fragmenstein)>  (677) 
0.865

>  <ref_pdb>  (677) 
Z3559a

>  <inspiration_score>  (677) 
None

$$$$
P125506
     RDKit          3D

 32 36  0  0  0  0  0  0  0  0999 V2000
   -4.7051    6.7015  -21.5412 C   0  0  0  0  0  0  0  0  0  0  0  0
   -5.0336    6.7265  -20.0576 C   0  0  0  0  0  0  0  0  0  0  0  0
   -4.7448    5.3805  -19.4008 C   0  0  0  0  0  0  0  0  0  0  0  0
   -5.0352    5.3945  -17.9821 N   0  0  0  0  0  0  0  0  0  0  0  0
   -4.1305    5.9012  -17.1092 N   0  0  0  0  0  0  0  0  0  0  0  0
   -4.7679    5.8198  -15.9345 C   0  0  0  0  0  0  0  0  0  0  0  0
   -6.0572    5.2548  -16.0473 C   0  0  0  0  0  0  0  0  0  0  0  0
   -7.1515    4.9637  -15.2248 C   0  0  0  0  0  0  0  0  0  0  0  0
   -7.1186    5.4191  -13.8283 C   0  0  0  0  0  0  0  0  0  0  0  0
   -6.6425    6.4695  -13.6380 O   0  0  0  0  0  0  0  0  0  0  0  0
   -7.7520    4.4106  -12.8395 N   0  0  0  0  0  0  0  0  0  0  0  0
   -7.8423    4.4417  -11.4533 C   0  0  0  0  0  0  0  0  0  0  0  0
   -7.2495    5.5287  -10.7855 C   0  0  0  0  0  0  0  0  0  0  0  0
   -7.2564    5.6118   -9.4066 C   0  0  0  0  0  0  0  0  0  0  0  0
   -7.8888    4.6024   -8.7234 C   0  0  0  0  0  0  0  0  0  0  0  0
   -8.5217    3.5327   -9.3578 C   0  0  0  0  0  0  0  0  0  0  0  0
   -8.4868    3.4214  -10.7393 C   0  0  0  0  0  0  0  0  0  0  0  0
   -9.1526    2.6750   -8.2917 C   0  0  0  0  0  0  0  0  0  0  0  0
   -9.1545    3.5670   -7.0843 N   0  0  0  0  0  0  0  0  0  0  0  0
   -9.1352    2.8366   -5.8253 C   0  0  0  0  0  0  0  0  0  0  0  0
   -8.7715    3.6551   -4.5601 C   0  0  0  0  0  0  0  0  0  0  0  0
   -9.7845    4.6986   -4.0607 C   0  0  0  0  0  0  0  0  0  0  0  0
   -9.4303    5.0752   -2.6134 C   0  0  0  0  0  0  0  0  0  0  0  0
   -9.8262    5.9733   -4.9011 C   0  0  0  0  0  0  0  0  0  0  0  0
   -8.0053    4.4555   -7.2561 C   0  0  0  0  0  0  0  0  0  0  0  0
   -8.2952    4.4195  -15.8087 C   0  0  0  0  0  0  0  0  0  0  0  0
   -8.3256    4.1977  -17.1876 C   0  0  0  0  0  0  0  0  0  0  0  0
   -9.6099    3.7339  -17.8269 C   0  0  0  0  0  0  0  0  0  0  0  0
   -9.5996    2.5100  -18.7027 C   0  0  0  0  0  0  0  0  0  0  0  0
   -9.8197    3.8639  -19.3113 C   0  0  0  0  0  0  0  0  0  0  0  0
   -7.2702    4.4591  -17.9985 N   0  0  0  0  0  0  0  0  0  0  0  0
   -6.1963    4.9811  -17.3911 C   0  0  0  0  0  0  0  0  0  0  0  0
  1  2  1  0
  2  3  1  0
  3  4  1  0
  4  5  1  0
  5  6  2  0
  6  7  1  0
  7  8  2  0
  8  9  1  0
  9 10  2  0
  9 11  1  0
 11 12  1  0
 12 13  2  0
 13 14  1  0
 14 15  2  0
 15 16  1  0
 16 17  2  0
 16 18  1  0
 18 19  1  0
 19 20  1  0
 20 21  1  0
 21 22  1  0
 22 23  1  0
 22 24  1  0
 19 25  1  0
  8 26  1  0
 26 27  2  0
 27 28  1  0
 28 29  1  0
 29 30  1  0
 27 31  1  0
 31 32  2  0
 32  4  1  0
 32  7  1  0
 17 12  1  0
 30 28  1  0
 25 15  1  0
M  END
>  <name>  (678) 
P125506

>  <alias>  (678) 
None

>  <smina_score_min>  (678) 
-8.014

>  <exports>  (678) 
['/opt/xchem-fragalysis-2/maxwin/BulkDock/OUTPUTS/openbind_xx01zvns2b_c2_elabs_1LOUTNY.sdf', '/opt/xchem-fragalysis-2/maxwin/BulkDock/OUTPUTS/openbind_xx01zvns2b_c2_elabs_1LSYIIV.sdf']

>  <tags>  (678) 
syndirella_placed,openbind_xx01zvns2b_c2_elabs,openbind_xx01zvns2b_c2_elabs_scored_6.2plus,syndirella_product,openbind_xx01zvns2b_c2_elabs_scored,openbind_xx01zvns2b_c2_elabs_scored_top80percent,BulkDock Fragalysis export

>  <subsites>  (678) 
1 - Z4590/B/203/1

>  <smiles>  (678) 
CCCn1ncc2c(C(=O)Nc3ccc4c(c3)CN(CCC(C)C)C4)cc(C3CC3)nc21

>  <HIPPO Pose ID>  (678) 
125506

>  <energy_score>  (678) 
-42.089015

>  <inchikey>  (678) 
MLETYJZWGMJNHA-UHFFFAOYSA-N

>  <gnina_score_min>  (678) 
6.388

>  <gnina_score>  (678) 
6.397

>  <ref_mols>  (678) 
Z3559a

>  <HIPPO Compound ID>  (678) 
179323

>  <distance_score>  (678) 
0.654197

>  <rmsd(smina/fragmenstein)>  (678) 
0.413

>  <ref_pdb>  (678) 
Z3559a

>  <inspiration_score>  (678) 
None

$$$$
P125507
     RDKit          3D

 32 37  0  0  0  0  0  0  0  0999 V2000
   -9.9717    1.0305   -8.6669 O   0  0  0  0  0  0  0  0  0  0  0  0
   -9.4182    2.0540   -8.3279 C   0  0  0  0  0  0  0  0  0  0  0  0
   -9.2905    2.5262   -7.0384 N   0  0  0  0  0  0  0  0  0  0  0  0
   -8.5985    3.7830   -6.9754 C   0  0  0  0  0  0  0  0  0  0  0  0
   -8.3385    4.0898   -8.4107 C   0  0  0  0  0  0  0  0  0  0  0  0
   -7.7444    5.1951   -8.9838 C   0  0  0  0  0  0  0  0  0  0  0  0
   -7.6177    5.2244  -10.3781 C   0  0  0  0  0  0  0  0  0  0  0  0
   -8.0769    4.1621  -11.1838 C   0  0  0  0  0  0  0  0  0  0  0  0
   -7.9271    4.2184  -12.5707 N   0  0  0  0  0  0  0  0  0  0  0  0
   -7.2681    5.2955  -13.4685 C   0  0  0  0  0  0  0  0  0  0  0  0
   -6.8171    6.3384  -13.1937 O   0  0  0  0  0  0  0  0  0  0  0  0
   -7.2503    4.9236  -14.9033 C   0  0  0  0  0  0  0  0  0  0  0  0
   -8.3661    4.4037  -15.5699 C   0  0  0  0  0  0  0  0  0  0  0  0
   -8.3399    4.2313  -16.9608 C   0  0  0  0  0  0  0  0  0  0  0  0
   -9.5878    3.7753  -17.6862 C   0  0  0  0  0  0  0  0  0  0  0  0
   -9.5208    2.5897  -18.6164 C   0  0  0  0  0  0  0  0  0  0  0  0
   -9.7282    3.9639  -19.1767 C   0  0  0  0  0  0  0  0  0  0  0  0
   -7.2528    4.5311  -17.7116 N   0  0  0  0  0  0  0  0  0  0  0  0
   -6.2119    5.0364  -17.0379 C   0  0  0  0  0  0  0  0  0  0  0  0
   -6.1280    5.2529  -15.6760 C   0  0  0  0  0  0  0  0  0  0  0  0
   -4.8418    5.8059  -15.4914 C   0  0  0  0  0  0  0  0  0  0  0  0
   -4.1602    5.9371  -16.6364 N   0  0  0  0  0  0  0  0  0  0  0  0
   -5.0377    5.4935  -17.5721 N   0  0  0  0  0  0  0  0  0  0  0  0
   -4.7096    5.5714  -18.9891 C   0  0  0  0  0  0  0  0  0  0  0  0
   -4.8734    6.9419  -19.6031 C   0  0  0  0  0  0  0  0  0  0  0  0
   -4.5787    7.1184  -20.9612 C   0  0  0  0  0  0  0  0  0  0  0  0
   -4.7018    8.3744  -21.5491 C   0  0  0  0  0  0  0  0  0  0  0  0
   -5.1491    9.4230  -20.7655 C   0  0  0  0  0  0  0  0  0  0  0  0
   -5.4872    9.2951  -19.4649 N   0  0  0  0  0  0  0  0  0  0  0  0
   -5.3022    8.0699  -18.9090 C   0  0  0  0  0  0  0  0  0  0  0  0
   -8.6818    3.0501  -10.5957 C   0  0  0  0  0  0  0  0  0  0  0  0
   -8.8025    3.0488   -9.2149 C   0  0  0  0  0  0  0  0  0  0  0  0
  1  2  2  0
  2  3  1  0
  3  4  1  0
  4  5  1  0
  5  6  2  0
  6  7  1  0
  7  8  2  0
  8  9  1  0
  9 10  1  0
 10 11  2  0
 10 12  1  0
 12 13  2  0
 13 14  1  0
 14 15  1  0
 15 16  1  0
 16 17  1  0
 14 18  2  0
 18 19  1  0
 19 20  2  0
 20 21  1  0
 21 22  2  0
 22 23  1  0
 23 24  1  0
 24 25  1  0
 25 26  2  0
 26 27  1  0
 27 28  2  0
 28 29  1  0
 29 30  2  0
  8 31  1  0
 31 32  2  0
 32  2  1  0
 32  5  1  0
 20 12  1  0
 30 25  1  0
 17 15  1  0
 23 19  1  0
M  END
>  <name>  (679) 
P125507

>  <alias>  (679) 
None

>  <smina_score_min>  (679) 
-9.217

>  <exports>  (679) 
['/opt/xchem-fragalysis-2/maxwin/BulkDock/OUTPUTS/openbind_xx01zvns2b_c2_elabs_1LOUTNY.sdf', '/opt/xchem-fragalysis-2/maxwin/BulkDock/OUTPUTS/openbind_xx01zvns2b_c2_elabs_1LSYIIV.sdf']

>  <tags>  (679) 
syndirella_placed,openbind_xx01zvns2b_c2_elabs,openbind_xx01zvns2b_c2_elabs_scored_6.2plus,syndirella_product,openbind_xx01zvns2b_c2_elabs_scored,openbind_xx01zvns2b_c2_elabs_scored_top80percent,BulkDock Fragalysis export

>  <subsites>  (679) 
1 - Z4590/B/203/1

>  <smiles>  (679) 
O=C1NCc2ccc(NC(=O)c3cc(C4CC4)nc4c3cnn4Cc3cccnc3)cc21

>  <HIPPO Pose ID>  (679) 
125507

>  <energy_score>  (679) 
-33.741116

>  <inchikey>  (679) 
HVNHFPWSJLUFJT-UHFFFAOYSA-N

>  <gnina_score_min>  (679) 
6.286

>  <gnina_score>  (679) 
6.38

>  <ref_mols>  (679) 
Z3559a

>  <HIPPO Compound ID>  (679) 
179014

>  <distance_score>  (679) 
0.323421

>  <rmsd(smina/fragmenstein)>  (679) 
0.672

>  <ref_pdb>  (679) 
Z3559a

>  <inspiration_score>  (679) 
None

$$$$
P125510
     RDKit          3D

 32 36  0  0  0  0  0  0  0  0999 V2000
  -11.5432    2.3207   -5.2263 C   0  0  0  0  0  0  0  0  0  0  0  0
  -10.8249    3.6115   -4.8921 C   0  0  0  0  0  0  0  0  0  0  0  0
   -9.3334    3.4213   -4.7216 C   0  0  0  0  0  0  0  0  0  0  0  0
   -8.7058    2.6293   -5.8610 C   0  0  0  0  0  0  0  0  0  0  0  0
   -8.7798    3.2919   -7.1321 N   0  0  0  0  0  0  0  0  0  0  0  0
   -8.9302    2.5311   -8.3748 C   0  0  0  0  0  0  0  0  0  0  0  0
   -8.4929    3.5224   -9.4018 C   0  0  0  0  0  0  0  0  0  0  0  0
   -8.4378    3.4354  -10.7813 C   0  0  0  0  0  0  0  0  0  0  0  0
   -7.9437    4.5467  -11.4775 C   0  0  0  0  0  0  0  0  0  0  0  0
   -7.8015    4.4993  -12.8558 N   0  0  0  0  0  0  0  0  0  0  0  0
   -7.2406    5.5453  -13.8420 C   0  0  0  0  0  0  0  0  0  0  0  0
   -6.8811    6.6407  -13.6598 O   0  0  0  0  0  0  0  0  0  0  0  0
   -7.1835    5.0416  -15.2167 C   0  0  0  0  0  0  0  0  0  0  0  0
   -8.2953    4.4797  -15.8394 C   0  0  0  0  0  0  0  0  0  0  0  0
   -8.2557    4.2241  -17.2110 C   0  0  0  0  0  0  0  0  0  0  0  0
   -9.5224    3.7582  -17.8909 C   0  0  0  0  0  0  0  0  0  0  0  0
   -9.5225    2.4883  -18.6973 C   0  0  0  0  0  0  0  0  0  0  0  0
   -9.6493    3.8133  -19.3891 C   0  0  0  0  0  0  0  0  0  0  0  0
   -7.1557    4.4649  -17.9732 N   0  0  0  0  0  0  0  0  0  0  0  0
   -6.1083    4.9981  -17.3218 C   0  0  0  0  0  0  0  0  0  0  0  0
   -6.0420    5.2994  -15.9770 C   0  0  0  0  0  0  0  0  0  0  0  0
   -4.7560    5.8461  -15.7912 C   0  0  0  0  0  0  0  0  0  0  0  0
   -4.0429    5.8821  -16.9215 N   0  0  0  0  0  0  0  0  0  0  0  0
   -4.9086    5.4000  -17.8479 N   0  0  0  0  0  0  0  0  0  0  0  0
   -4.5226    5.3846  -19.2422 C   0  0  0  0  0  0  0  0  0  0  0  0
   -4.1380    6.7555  -19.7996 C   0  0  0  0  0  0  0  0  0  0  0  0
   -5.2748    7.7564  -19.7153 C   0  0  0  0  0  0  0  0  0  0  0  0
   -7.5433    5.7169  -10.8012 C   0  0  0  0  0  0  0  0  0  0  0  0
   -7.5933    5.7954   -9.4208 C   0  0  0  0  0  0  0  0  0  0  0  0
   -8.0587    4.6841   -8.7637 C   0  0  0  0  0  0  0  0  0  0  0  0
   -8.1422    4.4975   -7.3277 C   0  0  0  0  0  0  0  0  0  0  0  0
   -7.6746    5.2721   -6.5128 O   0  0  0  0  0  0  0  0  0  0  0  0
  1  2  1  0
  2  3  1  0
  3  4  1  0
  4  5  1  0
  5  6  1  0
  6  7  1  0
  7  8  2  0
  8  9  1  0
  9 10  1  0
 10 11  1  0
 11 12  2  0
 11 13  1  0
 13 14  2  0
 14 15  1  0
 15 16  1  0
 16 17  1  0
 17 18  1  0
 15 19  2  0
 19 20  1  0
 20 21  2  0
 21 22  1  0
 22 23  2  0
 23 24  1  0
 24 25  1  0
 25 26  1  0
 26 27  1  0
  9 28  2  0
 28 29  1  0
 29 30  2  0
 30 31  1  0
 31 32  2  0
 31  5  1  0
 30  7  1  0
 21 13  1  0
 18 16  1  0
 24 20  1  0
M  END
>  <name>  (680) 
P125510

>  <alias>  (680) 
None

>  <smina_score_min>  (680) 
-8.071

>  <exports>  (680) 
['/opt/xchem-fragalysis-2/maxwin/BulkDock/OUTPUTS/openbind_xx01zvns2b_c2_elabs_1LOUTNY.sdf', '/opt/xchem-fragalysis-2/maxwin/BulkDock/OUTPUTS/openbind_xx01zvns2b_c2_elabs_1LSYIIV.sdf']

>  <tags>  (680) 
syndirella_placed,openbind_xx01zvns2b_c2_elabs,openbind_xx01zvns2b_c2_elabs_scored_6.2plus,syndirella_product,openbind_xx01zvns2b_c2_elabs_scored,openbind_xx01zvns2b_c2_elabs_scored_top80percent,BulkDock Fragalysis export

>  <subsites>  (680) 
1 - Z4590/B/203/1

>  <smiles>  (680) 
CCCCN1Cc2cc(NC(=O)c3cc(C4CC4)nc4c3cnn4CCC)ccc2C1=O

>  <HIPPO Pose ID>  (680) 
125510

>  <energy_score>  (680) 
-25.031485

>  <inchikey>  (680) 
ZXQXENUDDGYEHT-UHFFFAOYSA-N

>  <gnina_score_min>  (680) 
6.305

>  <gnina_score>  (680) 
6.408

>  <ref_mols>  (680) 
Z3559a

>  <HIPPO Compound ID>  (680) 
179413

>  <distance_score>  (680) 
0.624972

>  <rmsd(smina/fragmenstein)>  (680) 
0.699

>  <ref_pdb>  (680) 
Z3559a

>  <inspiration_score>  (680) 
None

$$$$
P125511
     RDKit          3D

 32 37  0  0  0  0  0  0  0  0999 V2000
   -4.8629    7.6032  -19.3986 C   0  0  0  0  0  0  0  0  0  0  0  0
   -5.0287    6.0859  -19.2747 C   0  0  1  0  0  0  0  0  0  0  0  0
   -4.0378    5.2711  -20.0723 C   0  0  0  0  0  0  0  0  0  0  0  0
   -3.0562    5.8571  -21.0664 C   0  0  0  0  0  0  0  0  0  0  0  0
   -2.5560    5.2786  -19.7741 C   0  0  0  0  0  0  0  0  0  0  0  0
   -5.0949    5.6845  -17.8617 N   0  0  0  0  0  0  0  0  0  0  0  0
   -4.1433    6.0869  -16.9769 N   0  0  0  0  0  0  0  0  0  0  0  0
   -4.7089    5.8497  -15.7868 C   0  0  0  0  0  0  0  0  0  0  0  0
   -5.9940    5.2745  -15.8880 C   0  0  0  0  0  0  0  0  0  0  0  0
   -7.0460    4.8938  -15.0402 C   0  0  0  0  0  0  0  0  0  0  0  0
   -6.9652    5.2234  -13.5912 C   0  0  0  0  0  0  0  0  0  0  0  0
   -6.3837    6.1962  -13.3055 O   0  0  0  0  0  0  0  0  0  0  0  0
   -7.7466    4.2237  -12.7027 N   0  0  0  0  0  0  0  0  0  0  0  0
   -7.8897    4.1639  -11.3164 C   0  0  0  0  0  0  0  0  0  0  0  0
   -7.4183    5.2208  -10.5066 C   0  0  0  0  0  0  0  0  0  0  0  0
   -7.5843    5.2036   -9.1171 C   0  0  0  0  0  0  0  0  0  0  0  0
   -8.2220    4.1100   -8.5740 C   0  0  0  0  0  0  0  0  0  0  0  0
   -8.6841    3.0737   -9.3617 C   0  0  0  0  0  0  0  0  0  0  0  0
   -8.5357    3.0675  -10.7387 C   0  0  0  0  0  0  0  0  0  0  0  0
   -9.3924    2.1489   -8.4825 C   0  0  0  0  0  0  0  0  0  0  0  0
  -10.0007    1.1768   -8.8794 O   0  0  0  0  0  0  0  0  0  0  0  0
   -9.2980    2.6571   -7.2165 N   0  0  0  0  0  0  0  0  0  0  0  0
  -10.0178    2.1105   -6.0964 C   0  0  0  0  0  0  0  0  0  0  0  0
   -8.6186    3.8398   -7.1932 C   0  0  0  0  0  0  0  0  0  0  0  0
   -8.4018    4.6005   -6.2664 O   0  0  0  0  0  0  0  0  0  0  0  0
   -8.2014    4.3749  -15.6417 C   0  0  0  0  0  0  0  0  0  0  0  0
   -8.2802    4.2518  -17.0349 C   0  0  0  0  0  0  0  0  0  0  0  0
   -9.5609    3.7676  -17.6764 C   0  0  0  0  0  0  0  0  0  0  0  0
   -9.8225    3.9788  -19.1466 C   0  0  0  0  0  0  0  0  0  0  0  0
   -9.5163    2.6035  -18.6353 C   0  0  0  0  0  0  0  0  0  0  0  0
   -7.2727    4.6281  -17.8550 N   0  0  0  0  0  0  0  0  0  0  0  0
   -6.1892    5.1278  -17.2480 C   0  0  0  0  0  0  0  0  0  0  0  0
  2  1  1  1
  2  3  1  0
  3  4  1  0
  4  5  1  0
  2  6  1  0
  6  7  1  0
  7  8  2  0
  8  9  1  0
  9 10  2  0
 10 11  1  0
 11 12  2  0
 11 13  1  0
 13 14  1  0
 14 15  2  0
 15 16  1  0
 16 17  2  0
 17 18  1  0
 18 19  2  0
 18 20  1  0
 20 21  2  0
 20 22  1  0
 22 23  1  0
 22 24  1  0
 24 25  2  0
 10 26  1  0
 26 27  2  0
 27 28  1  0
 28 29  1  0
 29 30  1  0
 27 31  1  0
 31 32  2  0
  5  3  1  0
 32  6  1  0
 32  9  1  0
 19 14  1  0
 30 28  1  0
 24 17  1  0
M  END
>  <name>  (681) 
P125511

>  <alias>  (681) 
None

>  <smina_score_min>  (681) 
-9.189

>  <exports>  (681) 
['/opt/xchem-fragalysis-2/maxwin/BulkDock/OUTPUTS/openbind_xx01zvns2b_c2_elabs_1LOUTNY.sdf', '/opt/xchem-fragalysis-2/maxwin/BulkDock/OUTPUTS/openbind_xx01zvns2b_c2_elabs_1LSYIIV.sdf']

>  <tags>  (681) 
syndirella_placed,openbind_xx01zvns2b_c2_elabs,openbind_xx01zvns2b_c2_elabs_scored_6.2plus,syndirella_product,openbind_xx01zvns2b_c2_elabs_scored,openbind_xx01zvns2b_c2_elabs_scored_top80percent,BulkDock Fragalysis export

>  <subsites>  (681) 
1 - Z4590/B/203/1

>  <smiles>  (681) 
C[C@@H](C1CC1)n1ncc2c(C(=O)Nc3ccc4c(c3)C(=O)N(C)C4=O)cc(C3CC3)nc21

>  <HIPPO Pose ID>  (681) 
125511

>  <energy_score>  (681) 
-43.826131

>  <inchikey>  (681) 
QSNMQVZRLPXNIT-LBPRGKRZSA-N

>  <gnina_score_min>  (681) 
6.24

>  <gnina_score>  (681) 
6.376

>  <ref_mols>  (681) 
Z3559a

>  <HIPPO Compound ID>  (681) 
179347

>  <distance_score>  (681) 
0.396872

>  <rmsd(smina/fragmenstein)>  (681) 
0.794

>  <ref_pdb>  (681) 
Z3559a

>  <inspiration_score>  (681) 
None

$$$$
P125515
     RDKit          3D

 32 37  0  0  0  0  0  0  0  0999 V2000
  -10.7619    2.6621   -5.3409 C   0  0  0  0  0  0  0  0  0  0  0  0
   -9.9553    1.8953   -6.3642 C   0  0  0  0  0  0  0  0  0  0  0  0
   -9.5043    2.7258   -7.4476 N   0  0  0  0  0  0  0  0  0  0  0  0
   -8.6800    3.9023   -7.2561 C   0  0  0  0  0  0  0  0  0  0  0  0
   -8.2864    4.2387   -8.6533 C   0  0  0  0  0  0  0  0  0  0  0  0
   -7.6283    5.3393   -9.1576 C   0  0  0  0  0  0  0  0  0  0  0  0
   -7.4090    5.3904  -10.5397 C   0  0  0  0  0  0  0  0  0  0  0  0
   -7.8289    4.3445  -11.3859 C   0  0  0  0  0  0  0  0  0  0  0  0
   -7.6036    4.3854  -12.7521 N   0  0  0  0  0  0  0  0  0  0  0  0
   -6.9560    5.4745  -13.6272 C   0  0  0  0  0  0  0  0  0  0  0  0
   -6.4400    6.4767  -13.3283 O   0  0  0  0  0  0  0  0  0  0  0  0
   -7.0052    5.1059  -15.0565 C   0  0  0  0  0  0  0  0  0  0  0  0
   -8.1439    4.5647  -15.6602 C   0  0  0  0  0  0  0  0  0  0  0  0
   -8.1577    4.3310  -17.0369 C   0  0  0  0  0  0  0  0  0  0  0  0
   -9.4265    3.8041  -17.6794 C   0  0  0  0  0  0  0  0  0  0  0  0
   -9.7093    4.0294  -19.1419 C   0  0  0  0  0  0  0  0  0  0  0  0
   -9.3592    2.6558  -18.6553 C   0  0  0  0  0  0  0  0  0  0  0  0
   -7.0968    4.6222  -17.8288 N   0  0  0  0  0  0  0  0  0  0  0  0
   -6.0153    5.1314  -17.2130 C   0  0  0  0  0  0  0  0  0  0  0  0
   -5.8971    5.3804  -15.8585 C   0  0  0  0  0  0  0  0  0  0  0  0
   -4.5923    5.8754  -15.6912 C   0  0  0  0  0  0  0  0  0  0  0  0
   -3.9112    5.9273  -16.8363 N   0  0  0  0  0  0  0  0  0  0  0  0
   -4.8217    5.5304  -17.7731 N   0  0  0  0  0  0  0  0  0  0  0  0
   -4.4070    5.5631  -19.1844 C   0  0  1  0  0  0  0  0  0  0  0  0
   -5.4325    4.9868  -20.1523 C   0  0  0  0  0  0  0  0  0  0  0  0
   -3.9282    6.9642  -19.5782 C   0  0  0  0  0  0  0  0  0  0  0  0
   -4.6272    7.8542  -20.5826 C   0  0  0  0  0  0  0  0  0  0  0  0
   -3.3132    7.2165  -20.9373 C   0  0  0  0  0  0  0  0  0  0  0  0
   -8.4891    3.2373  -10.8727 C   0  0  0  0  0  0  0  0  0  0  0  0
   -8.7094    3.2285   -9.5147 C   0  0  0  0  0  0  0  0  0  0  0  0
   -9.4648    2.2550   -8.7429 C   0  0  0  0  0  0  0  0  0  0  0  0
   -9.9852    1.2657   -9.2109 O   0  0  0  0  0  0  0  0  0  0  0  0
  1  2  1  0
  2  3  1  0
  3  4  1  0
  4  5  1  0
  5  6  2  0
  6  7  1  0
  7  8  2  0
  8  9  1  0
  9 10  1  0
 10 11  2  0
 10 12  1  0
 12 13  2  0
 13 14  1  0
 14 15  1  0
 15 16  1  0
 16 17  1  0
 14 18  2  0
 18 19  1  0
 19 20  2  0
 20 21  1  0
 21 22  2  0
 22 23  1  0
 23 24  1  0
 24 25  1  6
 24 26  1  0
 26 27  1  0
 27 28  1  0
  8 29  1  0
 29 30  2  0
 30 31  1  0
 31 32  2  0
 31  3  1  0
 30  5  1  0
 20 12  1  0
 28 26  1  0
 17 15  1  0
 23 19  1  0
M  END
>  <name>  (682) 
P125515

>  <alias>  (682) 
None

>  <smina_score_min>  (682) 
-8.66

>  <exports>  (682) 
['/opt/xchem-fragalysis-2/maxwin/BulkDock/OUTPUTS/openbind_xx01zvns2b_c2_elabs_1LOUTNY.sdf', '/opt/xchem-fragalysis-2/maxwin/BulkDock/OUTPUTS/openbind_xx01zvns2b_c2_elabs_1LSYIIV.sdf']

>  <tags>  (682) 
syndirella_placed,openbind_xx01zvns2b_c2_elabs,openbind_xx01zvns2b_c2_elabs_scored_6.2plus,syndirella_product,openbind_xx01zvns2b_c2_elabs_scored,openbind_xx01zvns2b_c2_elabs_scored_top80percent,BulkDock Fragalysis export

>  <subsites>  (682) 
1 - Z4590/B/203/1

>  <smiles>  (682) 
CCN1Cc2ccc(NC(=O)c3cc(C4CC4)nc4c3cnn4[C@@H](C)C3CC3)cc2C1=O

>  <HIPPO Pose ID>  (682) 
125515

>  <energy_score>  (682) 
-57.408498

>  <inchikey>  (682) 
VPVSAXCAKIIQPJ-AWEZNQCLSA-N

>  <gnina_score_min>  (682) 
6.277

>  <gnina_score>  (682) 
6.371

>  <ref_mols>  (682) 
Z3559a

>  <HIPPO Compound ID>  (682) 
179350

>  <distance_score>  (682) 
0.499041

>  <rmsd(smina/fragmenstein)>  (682) 
0.438

>  <ref_pdb>  (682) 
Z3559a

>  <inspiration_score>  (682) 
None

$$$$
P125520
     RDKit          3D

 32 37  0  0  0  0  0  0  0  0999 V2000
   -9.9688    2.4909   -5.9604 C   0  0  0  0  0  0  0  0  0  0  0  0
   -8.8598    2.8929   -6.8092 N   0  0  0  0  0  0  0  0  0  0  0  0
   -8.9881    2.2956   -8.1663 C   0  0  0  0  0  0  0  0  0  0  0  0
   -8.6428    3.3848   -9.1287 C   0  0  0  0  0  0  0  0  0  0  0  0
   -8.5141    3.3105  -10.5156 C   0  0  0  0  0  0  0  0  0  0  0  0
   -8.1882    4.4745  -11.2171 C   0  0  0  0  0  0  0  0  0  0  0  0
   -8.0287    4.4371  -12.6070 N   0  0  0  0  0  0  0  0  0  0  0  0
   -7.5585    5.5320  -13.5947 C   0  0  0  0  0  0  0  0  0  0  0  0
   -7.3049    6.6581  -13.4124 O   0  0  0  0  0  0  0  0  0  0  0  0
   -7.3779    5.0255  -14.9754 C   0  0  0  0  0  0  0  0  0  0  0  0
   -8.3778    4.3401  -15.6810 C   0  0  0  0  0  0  0  0  0  0  0  0
   -8.1956    4.0553  -17.0412 C   0  0  0  0  0  0  0  0  0  0  0  0
   -9.2394    3.3338  -17.8606 C   0  0  0  0  0  0  0  0  0  0  0  0
  -10.5831    3.9246  -18.1987 C   0  0  0  0  0  0  0  0  0  0  0  0
   -9.5193    3.8959  -19.2403 C   0  0  0  0  0  0  0  0  0  0  0  0
   -7.0796    4.4103  -17.7208 N   0  0  0  0  0  0  0  0  0  0  0  0
   -6.1522    5.0598  -17.0084 C   0  0  0  0  0  0  0  0  0  0  0  0
   -6.2160    5.3912  -15.6712 C   0  0  0  0  0  0  0  0  0  0  0  0
   -5.0097    6.0843  -15.4324 C   0  0  0  0  0  0  0  0  0  0  0  0
   -4.2466    6.2008  -16.5265 N   0  0  0  0  0  0  0  0  0  0  0  0
   -4.9688    5.5636  -17.4789 N   0  0  0  0  0  0  0  0  0  0  0  0
   -4.5419    5.5364  -18.8585 C   0  0  0  0  0  0  0  0  0  0  0  0
   -3.0311    5.5090  -19.0932 C   0  0  0  0  0  0  0  0  0  0  0  0
   -2.9147    5.8308  -20.5770 C   0  0  0  0  0  0  0  0  0  0  0  0
   -4.0705    6.7865  -20.8788 C   0  0  0  0  0  0  0  0  0  0  0  0
   -4.9768    6.7707  -19.6482 C   0  0  0  0  0  0  0  0  0  0  0  0
   -8.0083    5.6789  -10.5163 C   0  0  0  0  0  0  0  0  0  0  0  0
   -8.1391    5.7375   -9.1236 C   0  0  0  0  0  0  0  0  0  0  0  0
   -8.4582    4.5798   -8.4337 C   0  0  0  0  0  0  0  0  0  0  0  0
   -8.5669    4.3450   -6.9421 C   0  0  0  0  0  0  0  0  0  0  0  0
   -9.5398    5.2925   -6.2110 C   0  0  0  0  0  0  0  0  0  0  0  0
   -7.1830    4.6315   -6.3229 C   0  0  0  0  0  0  0  0  0  0  0  0
  1  2  1  0
  2  3  1  0
  3  4  1  0
  4  5  2  0
  5  6  1  0
  6  7  1  0
  7  8  1  0
  8  9  2  0
  8 10  1  0
 10 11  2  0
 11 12  1  0
 12 13  1  0
 13 14  1  0
 14 15  1  0
 12 16  2  0
 16 17  1  0
 17 18  2  0
 18 19  1  0
 19 20  2  0
 20 21  1  0
 21 22  1  0
 22 23  1  0
 23 24  1  0
 24 25  1  0
 25 26  1  0
  6 27  2  0
 27 28  1  0
 28 29  2  0
 29 30  1  0
 30 31  1  0
 30 32  1  0
 30  2  1  0
 29  4  1  0
 18 10  1  0
 26 22  1  0
 15 13  1  0
 21 17  1  0
M  END
>  <name>  (683) 
P125520

>  <alias>  (683) 
None

>  <smina_score_min>  (683) 
-9.276

>  <exports>  (683) 
['/opt/xchem-fragalysis-2/maxwin/BulkDock/OUTPUTS/openbind_xx01zvns2b_c2_elabs_1LOUTNY.sdf', '/opt/xchem-fragalysis-2/maxwin/BulkDock/OUTPUTS/openbind_xx01zvns2b_c2_elabs_1LSYIIV.sdf']

>  <tags>  (683) 
syndirella_placed,openbind_xx01zvns2b_c2_elabs,openbind_xx01zvns2b_c2_elabs_scored_6.2plus,syndirella_product,openbind_xx01zvns2b_c2_elabs_scored,openbind_xx01zvns2b_c2_elabs_scored_top80percent,BulkDock Fragalysis export

>  <subsites>  (683) 
1 - Z4590/B/203/1

>  <smiles>  (683) 
CN1Cc2cc(NC(=O)c3cc(C4CC4)nc4c3cnn4C3CCCC3)ccc2C1(C)C

>  <HIPPO Pose ID>  (683) 
125520

>  <energy_score>  (683) 
-58.39388

>  <inchikey>  (683) 
DCRNHLMMMTWCBW-UHFFFAOYSA-N

>  <gnina_score_min>  (683) 
6.616

>  <gnina_score>  (683) 
6.555

>  <ref_mols>  (683) 
Z3559a

>  <HIPPO Compound ID>  (683) 
178962

>  <distance_score>  (683) 
0.64187

>  <rmsd(smina/fragmenstein)>  (683) 
0.702

>  <ref_pdb>  (683) 
Z3559a

>  <inspiration_score>  (683) 
None

$$$$
P125521
     RDKit          3D

 32 37  0  0  0  0  0  0  0  0999 V2000
   -9.3924    3.5909   -4.7351 C   0  0  0  0  0  0  0  0  0  0  0  0
   -9.9979    3.0373   -6.0316 C   0  0  0  0  0  0  0  0  0  0  0  0
  -10.3525    1.5753   -5.8717 C   0  0  0  0  0  0  0  0  0  0  0  0
   -9.1320    3.2847   -7.1817 N   0  0  0  0  0  0  0  0  0  0  0  0
   -8.3981    4.5241   -7.2715 C   0  0  0  0  0  0  0  0  0  0  0  0
   -8.0675    4.6263   -8.7072 C   0  0  0  0  0  0  0  0  0  0  0  0
   -7.4532    5.6687   -9.3598 C   0  0  0  0  0  0  0  0  0  0  0  0
   -7.3101    5.5630  -10.7375 C   0  0  0  0  0  0  0  0  0  0  0  0
   -7.7574    4.4259  -11.4405 C   0  0  0  0  0  0  0  0  0  0  0  0
   -7.5665    4.3785  -12.8168 N   0  0  0  0  0  0  0  0  0  0  0  0
   -7.0214    5.4469  -13.7920 C   0  0  0  0  0  0  0  0  0  0  0  0
   -6.5758    6.5055  -13.5827 O   0  0  0  0  0  0  0  0  0  0  0  0
   -7.0561    4.9983  -15.1941 C   0  0  0  0  0  0  0  0  0  0  0  0
   -8.2264    4.4633  -15.7461 C   0  0  0  0  0  0  0  0  0  0  0  0
   -8.3026    4.2296  -17.1204 C   0  0  0  0  0  0  0  0  0  0  0  0
   -9.5975    3.7512  -17.7312 C   0  0  0  0  0  0  0  0  0  0  0  0
   -9.5827    2.5668  -18.6643 C   0  0  0  0  0  0  0  0  0  0  0  0
   -9.8711    3.9368  -19.2019 C   0  0  0  0  0  0  0  0  0  0  0  0
   -7.2726    4.4880  -17.9567 N   0  0  0  0  0  0  0  0  0  0  0  0
   -6.1735    4.9964  -17.3851 C   0  0  0  0  0  0  0  0  0  0  0  0
   -5.9722    5.2648  -16.0442 C   0  0  0  0  0  0  0  0  0  0  0  0
   -4.6433    5.7595  -15.9975 C   0  0  0  0  0  0  0  0  0  0  0  0
   -3.8735    6.1444  -14.6987 C   0  0  0  0  0  0  0  0  0  0  0  0
   -2.5112    6.7872  -14.7798 C   0  0  0  0  0  0  0  0  0  0  0  0
   -3.6997    7.6053  -14.3697 C   0  0  0  0  0  0  0  0  0  0  0  0
   -4.0722    5.8424  -17.2073 N   0  0  0  0  0  0  0  0  0  0  0  0
   -5.0385    5.3886  -18.0323 N   0  0  0  0  0  0  0  0  0  0  0  0
   -4.8369    5.4029  -19.4582 C   0  0  0  0  0  0  0  0  0  0  0  0
   -8.3789    3.3716  -10.7677 C   0  0  0  0  0  0  0  0  0  0  0  0
   -8.5286    3.5097   -9.3980 C   0  0  0  0  0  0  0  0  0  0  0  0
   -9.2591    2.6729   -8.4354 C   0  0  0  0  0  0  0  0  0  0  0  0
   -9.9071    1.6983   -8.7595 O   0  0  0  0  0  0  0  0  0  0  0  0
  1  2  1  0
  2  3  1  0
  2  4  1  0
  4  5  1  0
  5  6  1  0
  6  7  2  0
  7  8  1  0
  8  9  2  0
  9 10  1  0
 10 11  1  0
 11 12  2  0
 11 13  1  0
 13 14  2  0
 14 15  1  0
 15 16  1  0
 16 17  1  0
 17 18  1  0
 15 19  2  0
 19 20  1  0
 20 21  2  0
 21 22  1  0
 22 23  1  0
 23 24  1  0
 24 25  1  0
 22 26  2  0
 26 27  1  0
 27 28  1  0
  9 29  1  0
 29 30  2  0
 30 31  1  0
 31 32  2  0
 31  4  1  0
 30  6  1  0
 21 13  1  0
 25 23  1  0
 18 16  1  0
 27 20  1  0
M  END
>  <name>  (684) 
P125521

>  <alias>  (684) 
None

>  <smina_score_min>  (684) 
-8.657

>  <exports>  (684) 
['/opt/xchem-fragalysis-2/maxwin/BulkDock/OUTPUTS/openbind_xx01zvns2b_c2_elabs_1LOUTNY.sdf', '/opt/xchem-fragalysis-2/maxwin/BulkDock/OUTPUTS/openbind_xx01zvns2b_c2_elabs_1LSYIIV.sdf']

>  <tags>  (684) 
syndirella_placed,openbind_xx01zvns2b_c2_elabs,openbind_xx01zvns2b_c2_elabs_scored_6.2plus,syndirella_product,openbind_xx01zvns2b_c2_elabs_scored,openbind_xx01zvns2b_c2_elabs_scored_top80percent,BulkDock Fragalysis export

>  <subsites>  (684) 
1 - Z4590/B/203/1

>  <smiles>  (684) 
CC(C)N1Cc2ccc(NC(=O)c3cc(C4CC4)nc4c3c(C3CC3)nn4C)cc2C1=O

>  <HIPPO Pose ID>  (684) 
125521

>  <energy_score>  (684) 
-44.96809

>  <inchikey>  (684) 
GJVKKQQVDVHJGC-UHFFFAOYSA-N

>  <gnina_score_min>  (684) 
6.281

>  <gnina_score>  (684) 
6.406

>  <ref_mols>  (684) 
Z3559a

>  <HIPPO Compound ID>  (684) 
179264

>  <distance_score>  (684) 
0.61738

>  <rmsd(smina/fragmenstein)>  (684) 
1.048

>  <ref_pdb>  (684) 
Z3559a

>  <inspiration_score>  (684) 
None

$$$$
P125523
     RDKit          3D

 32 37  0  0  0  0  0  0  0  0999 V2000
   -9.1642    4.2811   -2.9149 C   0  0  0  0  0  0  0  0  0  0  0  0
   -8.8391    3.9061   -4.3517 C   0  0  0  0  0  0  0  0  0  0  0  0
   -9.9333    3.0560   -5.0139 C   0  0  0  0  0  0  0  0  0  0  0  0
   -9.4755    2.2638   -6.2519 C   0  0  0  0  0  0  0  0  0  0  0  0
   -9.4538    3.0532   -7.4670 N   0  0  0  0  0  0  0  0  0  0  0  0
   -8.5598    4.2112   -7.4290 C   0  0  0  0  0  0  0  0  0  0  0  0
   -8.2268    4.4477   -8.8561 C   0  0  0  0  0  0  0  0  0  0  0  0
   -7.7228    5.5892   -9.4377 C   0  0  0  0  0  0  0  0  0  0  0  0
   -7.5077    5.5636  -10.8084 C   0  0  0  0  0  0  0  0  0  0  0  0
   -7.7740    4.4042  -11.5573 C   0  0  0  0  0  0  0  0  0  0  0  0
   -7.5373    4.3997  -12.9228 N   0  0  0  0  0  0  0  0  0  0  0  0
   -7.0768    5.5318  -13.8636 C   0  0  0  0  0  0  0  0  0  0  0  0
   -6.7501    6.6262  -13.6265 O   0  0  0  0  0  0  0  0  0  0  0  0
   -7.0718    5.0791  -15.2592 C   0  0  0  0  0  0  0  0  0  0  0  0
   -8.2231    4.5078  -15.8121 C   0  0  0  0  0  0  0  0  0  0  0  0
   -8.2722    4.2339  -17.1772 C   0  0  0  0  0  0  0  0  0  0  0  0
   -9.5608    3.7376  -17.7862 C   0  0  0  0  0  0  0  0  0  0  0  0
   -9.8210    3.8906  -19.2614 C   0  0  0  0  0  0  0  0  0  0  0  0
   -9.5444    2.5318  -18.6887 C   0  0  0  0  0  0  0  0  0  0  0  0
   -7.2256    4.4735  -17.9992 N   0  0  0  0  0  0  0  0  0  0  0  0
   -6.1453    5.0203  -17.4225 C   0  0  0  0  0  0  0  0  0  0  0  0
   -5.9788    5.3414  -16.0884 C   0  0  0  0  0  0  0  0  0  0  0  0
   -4.6740    5.8833  -16.0274 C   0  0  0  0  0  0  0  0  0  0  0  0
   -3.9734    6.4230  -14.7495 C   0  0  0  0  0  0  0  0  0  0  0  0
   -3.6944    5.5074  -13.5859 C   0  0  0  0  0  0  0  0  0  0  0  0
   -2.5630    5.9771  -14.4497 C   0  0  0  0  0  0  0  0  0  0  0  0
   -4.0723    5.9360  -17.2231 N   0  0  0  0  0  0  0  0  0  0  0  0
   -5.0031    5.4176  -18.0552 N   0  0  0  0  0  0  0  0  0  0  0  0
   -4.7711    5.3990  -19.4765 C   0  0  0  0  0  0  0  0  0  0  0  0
   -8.2780    3.2501  -10.9498 C   0  0  0  0  0  0  0  0  0  0  0  0
   -8.5143    3.2968   -9.5911 C   0  0  0  0  0  0  0  0  0  0  0  0
   -9.0822    2.2639   -8.6658 C   0  0  0  0  0  0  0  0  0  0  0  0
  1  2  1  0
  2  3  1  0
  3  4  1  0
  4  5  1  0
  5  6  1  0
  6  7  1  0
  7  8  2  0
  8  9  1  0
  9 10  2  0
 10 11  1  0
 11 12  1  0
 12 13  2  0
 12 14  1  0
 14 15  2  0
 15 16  1  0
 16 17  1  0
 17 18  1  0
 18 19  1  0
 16 20  2  0
 20 21  1  0
 21 22  2  0
 22 23  1  0
 23 24  1  0
 24 25  1  0
 25 26  1  0
 23 27  2  0
 27 28  1  0
 28 29  1  0
 10 30  1  0
 30 31  2  0
 31 32  1  0
 32  5  1  0
 31  7  1  0
 22 14  1  0
 26 24  1  0
 19 17  1  0
 28 21  1  0
M  END
>  <name>  (685) 
P125523

>  <alias>  (685) 
None

>  <smina_score_min>  (685) 
-8.585

>  <exports>  (685) 
['/opt/xchem-fragalysis-2/maxwin/BulkDock/OUTPUTS/openbind_xx01zvns2b_c2_elabs_1LOUTNY.sdf', '/opt/xchem-fragalysis-2/maxwin/BulkDock/OUTPUTS/openbind_xx01zvns2b_c2_elabs_1LSYIIV.sdf']

>  <tags>  (685) 
syndirella_placed,openbind_xx01zvns2b_c2_elabs,openbind_xx01zvns2b_c2_elabs_scored_6.2plus,syndirella_product,openbind_xx01zvns2b_c2_elabs_scored,openbind_xx01zvns2b_c2_elabs_scored_top80percent,BulkDock Fragalysis export

>  <subsites>  (685) 
1 - Z4590/B/203/1

>  <smiles>  (685) 
CCCCN1Cc2ccc(NC(=O)c3cc(C4CC4)nc4c3c(C3CC3)nn4C)cc2C1

>  <HIPPO Pose ID>  (685) 
125523

>  <energy_score>  (685) 
-53.059215

>  <inchikey>  (685) 
WRQJIRNFZXWTGC-UHFFFAOYSA-N

>  <gnina_score_min>  (685) 
6.585

>  <gnina_score>  (685) 
6.501

>  <ref_mols>  (685) 
Z3559a

>  <HIPPO Compound ID>  (685) 
179262

>  <distance_score>  (685) 
0.582454

>  <rmsd(smina/fragmenstein)>  (685) 
0.582

>  <ref_pdb>  (685) 
Z3559a

>  <inspiration_score>  (685) 
None

$$$$
P125525
     RDKit          3D

 32 36  0  0  0  0  0  0  0  0999 V2000
   -6.6336    6.5891  -13.3735 O   0  0  0  0  0  0  0  0  0  0  0  0
   -7.0232    5.5307  -13.6675 C   0  0  0  0  0  0  0  0  0  0  0  0
   -7.5547    4.3840  -12.7902 N   0  0  0  0  0  0  0  0  0  0  0  0
   -7.7988    4.3322  -11.4284 C   0  0  0  0  0  0  0  0  0  0  0  0
   -7.5659    5.4458  -10.6026 C   0  0  0  0  0  0  0  0  0  0  0  0
   -7.8306    5.3870   -9.2346 C   0  0  0  0  0  0  0  0  0  0  0  0
   -8.3379    4.2076   -8.7329 C   0  0  0  0  0  0  0  0  0  0  0  0
   -8.5636    3.1012   -9.5566 C   0  0  0  0  0  0  0  0  0  0  0  0
   -8.2945    3.1399  -10.9058 C   0  0  0  0  0  0  0  0  0  0  0  0
   -9.1288    1.9881   -8.7407 C   0  0  0  0  0  0  0  0  0  0  0  0
   -9.6206    2.6876   -7.5460 N   0  0  0  0  0  0  0  0  0  0  0  0
   -9.7368    1.8195   -6.3831 C   0  0  0  0  0  0  0  0  0  0  0  0
  -10.2948    2.5117   -5.1367 C   0  0  0  0  0  0  0  0  0  0  0  0
   -9.3640    3.3379   -4.5818 F   0  0  0  0  0  0  0  0  0  0  0  0
  -11.3564    3.2994   -5.4469 F   0  0  0  0  0  0  0  0  0  0  0  0
   -8.7576    3.8625   -7.3423 C   0  0  0  0  0  0  0  0  0  0  0  0
   -7.0183    5.1353  -15.0843 C   0  0  0  0  0  0  0  0  0  0  0  0
   -8.1328    4.5595  -15.6966 C   0  0  0  0  0  0  0  0  0  0  0  0
   -8.1123    4.2981  -17.0676 C   0  0  0  0  0  0  0  0  0  0  0  0
   -9.3775    3.7740  -17.7206 C   0  0  0  0  0  0  0  0  0  0  0  0
   -9.3164    2.6192  -18.6869 C   0  0  0  0  0  0  0  0  0  0  0  0
   -9.6395    3.9947  -19.1870 C   0  0  0  0  0  0  0  0  0  0  0  0
   -7.0265    4.5639  -17.8398 N   0  0  0  0  0  0  0  0  0  0  0  0
   -5.9803    5.1276  -17.2113 C   0  0  0  0  0  0  0  0  0  0  0  0
   -5.9024    5.4262  -15.8640 C   0  0  0  0  0  0  0  0  0  0  0  0
   -4.6249    5.9842  -15.6833 C   0  0  0  0  0  0  0  0  0  0  0  0
   -3.9279    6.0424  -16.8198 N   0  0  0  0  0  0  0  0  0  0  0  0
   -4.7955    5.5619  -17.7507 N   0  0  0  0  0  0  0  0  0  0  0  0
   -4.3475    5.5806  -19.1237 C   0  0  0  0  0  0  0  0  0  0  0  0
   -5.4161    5.6960  -20.1746 C   0  0  0  0  0  0  0  0  0  0  0  0
   -6.2938    6.6748  -19.8482 F   0  0  0  0  0  0  0  0  0  0  0  0
   -6.0625    4.5189  -20.3323 F   0  0  0  0  0  0  0  0  0  0  0  0
  1  2  2  0
  2  3  1  0
  3  4  1  0
  4  5  2  0
  5  6  1  0
  6  7  2  0
  7  8  1  0
  8  9  2  0
  8 10  1  0
 10 11  1  0
 11 12  1  0
 12 13  1  0
 13 14  1  0
 13 15  1  0
 11 16  1  0
  2 17  1  0
 17 18  2  0
 18 19  1  0
 19 20  1  0
 20 21  1  0
 21 22  1  0
 19 23  2  0
 23 24  1  0
 24 25  2  0
 25 26  1  0
 26 27  2  0
 27 28  1  0
 28 29  1  0
 29 30  1  0
 30 31  1  0
 30 32  1  0
  9  4  1  0
 25 17  1  0
 16  7  1  0
 22 20  1  0
 28 24  1  0
M  END
>  <name>  (686) 
P125525

>  <alias>  (686) 
None

>  <smina_score_min>  (686) 
-8.804

>  <exports>  (686) 
['/opt/xchem-fragalysis-2/maxwin/BulkDock/OUTPUTS/openbind_xx01zvns2b_c2_elabs_1LOUTNY.sdf', '/opt/xchem-fragalysis-2/maxwin/BulkDock/OUTPUTS/openbind_xx01zvns2b_c2_elabs_1LSYIIV.sdf']

>  <tags>  (686) 
syndirella_placed,openbind_xx01zvns2b_c2_elabs,openbind_xx01zvns2b_c2_elabs_scored_6.2plus,syndirella_product,openbind_xx01zvns2b_c2_elabs_scored,openbind_xx01zvns2b_c2_elabs_scored_top80percent,BulkDock Fragalysis export

>  <subsites>  (686) 
1 - Z4590/B/203/1

>  <smiles>  (686) 
O=C(Nc1ccc2c(c1)CN(CC(F)F)C2)c1cc(C2CC2)nc2c1cnn2CC(F)F

>  <HIPPO Pose ID>  (686) 
125525

>  <energy_score>  (686) 
-39.204071

>  <inchikey>  (686) 
NPXZZNSLFCSDNJ-UHFFFAOYSA-N

>  <gnina_score_min>  (686) 
6.367

>  <gnina_score>  (686) 
6.223

>  <ref_mols>  (686) 
Z3559a

>  <HIPPO Compound ID>  (686) 
179301

>  <distance_score>  (686) 
0.516155

>  <rmsd(smina/fragmenstein)>  (686) 
0.573

>  <ref_pdb>  (686) 
Z3559a

>  <inspiration_score>  (686) 
None

$$$$
P125526
     RDKit          3D

 32 36  0  0  0  0  0  0  0  0999 V2000
   -9.4417    3.6264   -4.7078 C   0  0  0  0  0  0  0  0  0  0  0  0
  -10.0343    3.0537   -6.0021 C   0  0  0  0  0  0  0  0  0  0  0  0
  -10.4016    1.5972   -5.8195 C   0  0  0  0  0  0  0  0  0  0  0  0
   -9.1543    3.2707   -7.1490 N   0  0  0  0  0  0  0  0  0  0  0  0
   -8.3762    4.4830   -7.2398 C   0  0  0  0  0  0  0  0  0  0  0  0
   -8.0280    4.5633   -8.6731 C   0  0  0  0  0  0  0  0  0  0  0  0
   -7.3509    5.5674   -9.3234 C   0  0  0  0  0  0  0  0  0  0  0  0
   -7.2065    5.4514  -10.7003 C   0  0  0  0  0  0  0  0  0  0  0  0
   -7.7305    4.3498  -11.4070 C   0  0  0  0  0  0  0  0  0  0  0  0
   -7.5597    4.3036  -12.7865 N   0  0  0  0  0  0  0  0  0  0  0  0
   -6.9707    5.3504  -13.7614 C   0  0  0  0  0  0  0  0  0  0  0  0
   -6.4667    6.3832  -13.5497 O   0  0  0  0  0  0  0  0  0  0  0  0
   -7.0672    4.9424  -15.1760 C   0  0  0  0  0  0  0  0  0  0  0  0
   -8.2250    4.3893  -15.7328 C   0  0  0  0  0  0  0  0  0  0  0  0
   -8.3077    4.1962  -17.1166 C   0  0  0  0  0  0  0  0  0  0  0  0
   -9.6021    3.7236  -17.7317 C   0  0  0  0  0  0  0  0  0  0  0  0
   -9.8713    3.9109  -19.2032 C   0  0  0  0  0  0  0  0  0  0  0  0
   -9.5894    2.5399  -18.6648 C   0  0  0  0  0  0  0  0  0  0  0  0
   -7.2897    4.4928  -17.9590 N   0  0  0  0  0  0  0  0  0  0  0  0
   -6.2111    5.0370  -17.3836 C   0  0  0  0  0  0  0  0  0  0  0  0
   -6.0229    5.2889  -16.0420 C   0  0  0  0  0  0  0  0  0  0  0  0
   -4.7566    5.9078  -15.9819 C   0  0  0  0  0  0  0  0  0  0  0  0
   -4.2019    6.0722  -17.1886 N   0  0  0  0  0  0  0  0  0  0  0  0
   -5.1036    5.5200  -18.0291 N   0  0  0  0  0  0  0  0  0  0  0  0
   -4.9921    5.6263  -19.4667 C   0  0  0  0  0  0  0  0  0  0  0  0
   -3.5890    5.7207  -20.0151 C   0  0  0  0  0  0  0  0  0  0  0  0
   -2.8141    4.6992  -19.5831 F   0  0  0  0  0  0  0  0  0  0  0  0
   -2.9856    6.8834  -19.6753 F   0  0  0  0  0  0  0  0  0  0  0  0
   -8.4112    3.3323  -10.7363 C   0  0  0  0  0  0  0  0  0  0  0  0
   -8.5439    3.4718   -9.3650 C   0  0  0  0  0  0  0  0  0  0  0  0
   -9.2996    2.6607   -8.4010 C   0  0  0  0  0  0  0  0  0  0  0  0
   -9.9729    1.7029   -8.7235 O   0  0  0  0  0  0  0  0  0  0  0  0
  1  2  1  0
  2  3  1  0
  2  4  1  0
  4  5  1  0
  5  6  1  0
  6  7  2  0
  7  8  1  0
  8  9  2  0
  9 10  1  0
 10 11  1  0
 11 12  2  0
 11 13  1  0
 13 14  2  0
 14 15  1  0
 15 16  1  0
 16 17  1  0
 17 18  1  0
 15 19  2  0
 19 20  1  0
 20 21  2  0
 21 22  1  0
 22 23  2  0
 23 24  1  0
 24 25  1  0
 25 26  1  0
 26 27  1  0
 26 28  1  0
  9 29  1  0
 29 30  2  0
 30 31  1  0
 31 32  2  0
 31  4  1  0
 30  6  1  0
 21 13  1  0
 18 16  1  0
 24 20  1  0
M  END
>  <name>  (687) 
P125526

>  <alias>  (687) 
None

>  <smina_score_min>  (687) 
-8.709

>  <exports>  (687) 
['/opt/xchem-fragalysis-2/maxwin/BulkDock/OUTPUTS/openbind_xx01zvns2b_c2_elabs_1LOUTNY.sdf', '/opt/xchem-fragalysis-2/maxwin/BulkDock/OUTPUTS/openbind_xx01zvns2b_c2_elabs_1LSYIIV.sdf']

>  <tags>  (687) 
syndirella_placed,openbind_xx01zvns2b_c2_elabs,openbind_xx01zvns2b_c2_elabs_scored_6.2plus,syndirella_product,openbind_xx01zvns2b_c2_elabs_scored,openbind_xx01zvns2b_c2_elabs_scored_top80percent,BulkDock Fragalysis export

>  <subsites>  (687) 
1 - Z4590/B/203/1

>  <smiles>  (687) 
CC(C)N1Cc2ccc(NC(=O)c3cc(C4CC4)nc4c3cnn4CC(F)F)cc2C1=O

>  <HIPPO Pose ID>  (687) 
125526

>  <energy_score>  (687) 
-12.649188

>  <inchikey>  (687) 
PSPUETUJJLLJFP-UHFFFAOYSA-N

>  <gnina_score_min>  (687) 
6.2

>  <gnina_score>  (687) 
6.273

>  <ref_mols>  (687) 
Z3559a

>  <HIPPO Compound ID>  (687) 
179302

>  <distance_score>  (687) 
0.601557

>  <rmsd(smina/fragmenstein)>  (687) 
0.276

>  <ref_pdb>  (687) 
Z3559a

>  <inspiration_score>  (687) 
None

$$$$
P125527
     RDKit          3D

 32 37  0  0  0  0  0  0  0  0999 V2000
  -10.1116    2.2559   -6.1651 C   0  0  0  0  0  0  0  0  0  0  0  0
   -8.9937    2.5771   -7.0289 N   0  0  0  0  0  0  0  0  0  0  0  0
   -8.6786    4.0086   -7.1032 C   0  0  0  0  0  0  0  0  0  0  0  0
   -8.3524    4.2734   -8.5371 C   0  0  0  0  0  0  0  0  0  0  0  0
   -7.8831    5.4321   -9.1259 C   0  0  0  0  0  0  0  0  0  0  0  0
   -7.6924    5.4404  -10.5109 C   0  0  0  0  0  0  0  0  0  0  0  0
   -7.9790    4.3052  -11.2872 C   0  0  0  0  0  0  0  0  0  0  0  0
   -7.8133    4.3310  -12.6726 N   0  0  0  0  0  0  0  0  0  0  0  0
   -7.1495    5.3900  -13.5862 C   0  0  0  0  0  0  0  0  0  0  0  0
   -6.7068    6.4406  -13.3301 O   0  0  0  0  0  0  0  0  0  0  0  0
   -7.1555    4.9831  -15.0116 C   0  0  0  0  0  0  0  0  0  0  0  0
   -8.2885    4.4241  -15.6200 C   0  0  0  0  0  0  0  0  0  0  0  0
   -8.3168    4.2184  -17.0046 C   0  0  0  0  0  0  0  0  0  0  0  0
   -9.5864    3.7437  -17.6737 C   0  0  0  0  0  0  0  0  0  0  0  0
   -9.5378    2.5749  -18.6261 C   0  0  0  0  0  0  0  0  0  0  0  0
   -9.8043    3.9528  -19.1522 C   0  0  0  0  0  0  0  0  0  0  0  0
   -7.2637    4.5083  -17.8019 N   0  0  0  0  0  0  0  0  0  0  0  0
   -6.2104    5.0578  -17.1844 C   0  0  0  0  0  0  0  0  0  0  0  0
   -6.0749    5.3215  -15.8366 C   0  0  0  0  0  0  0  0  0  0  0  0
   -4.8046    5.9281  -15.7349 C   0  0  0  0  0  0  0  0  0  0  0  0
   -4.1870    6.0547  -16.9176 N   0  0  0  0  0  0  0  0  0  0  0  0
   -5.0761    5.5274  -17.7953 N   0  0  0  0  0  0  0  0  0  0  0  0
   -4.9118    5.5608  -19.2477 C   0  0  0  0  0  0  0  0  0  0  0  0
   -3.6010    6.0982  -19.7661 C   0  0  0  0  0  0  0  0  0  0  0  0
   -2.3798    5.4857  -19.4661 C   0  0  0  0  0  0  0  0  0  0  0  0
   -1.2179    6.0037  -20.0197 C   0  0  0  0  0  0  0  0  0  0  0  0
   -1.1894    7.0684  -20.8512 N   0  0  0  0  0  0  0  0  0  0  0  0
   -2.3752    7.6436  -21.1332 C   0  0  0  0  0  0  0  0  0  0  0  0
   -3.5883    7.2013  -20.6279 C   0  0  0  0  0  0  0  0  0  0  0  0
   -8.4560    3.1406  -10.6770 C   0  0  0  0  0  0  0  0  0  0  0  0
   -8.6292    3.1424   -9.2994 C   0  0  0  0  0  0  0  0  0  0  0  0
   -9.1397    2.0552   -8.4055 C   0  0  0  0  0  0  0  0  0  0  0  0
  1  2  1  0
  2  3  1  0
  3  4  1  0
  4  5  2  0
  5  6  1  0
  6  7  2  0
  7  8  1  0
  8  9  1  0
  9 10  2  0
  9 11  1  0
 11 12  2  0
 12 13  1  0
 13 14  1  0
 14 15  1  0
 15 16  1  0
 13 17  2  0
 17 18  1  0
 18 19  2  0
 19 20  1  0
 20 21  2  0
 21 22  1  0
 22 23  1  0
 23 24  1  0
 24 25  2  0
 25 26  1  0
 26 27  2  0
 27 28  1  0
 28 29  2  0
  7 30  1  0
 30 31  2  0
 31 32  1  0
 32  2  1  0
 31  4  1  0
 19 11  1  0
 29 24  1  0
 16 14  1  0
 22 18  1  0
M  END
>  <name>  (688) 
P125527

>  <alias>  (688) 
None

>  <smina_score_min>  (688) 
-9.019

>  <exports>  (688) 
['/opt/xchem-fragalysis-2/maxwin/BulkDock/OUTPUTS/openbind_xx01zvns2b_c2_elabs_1LOUTNY.sdf', '/opt/xchem-fragalysis-2/maxwin/BulkDock/OUTPUTS/openbind_xx01zvns2b_c2_elabs_1LSYIIV.sdf']

>  <tags>  (688) 
syndirella_placed,openbind_xx01zvns2b_c2_elabs,openbind_xx01zvns2b_c2_elabs_scored_6.2plus,syndirella_product,openbind_xx01zvns2b_c2_elabs_scored,openbind_xx01zvns2b_c2_elabs_scored_top80percent,BulkDock Fragalysis export

>  <subsites>  (688) 
1 - Z4590/B/203/1

>  <smiles>  (688) 
CN1Cc2ccc(NC(=O)c3cc(C4CC4)nc4c3cnn4Cc3ccncc3)cc2C1

>  <HIPPO Pose ID>  (688) 
125527

>  <energy_score>  (688) 
-14.442167

>  <inchikey>  (688) 
AYKCVNDFHDUGAQ-UHFFFAOYSA-N

>  <gnina_score_min>  (688) 
6.409

>  <gnina_score>  (688) 
6.37

>  <ref_mols>  (688) 
Z3559a

>  <HIPPO Compound ID>  (688) 
179305

>  <distance_score>  (688) 
0.341911

>  <rmsd(smina/fragmenstein)>  (688) 
0.238

>  <ref_pdb>  (688) 
Z3559a

>  <inspiration_score>  (688) 
None

$$$$
P125529
     RDKit          3D

 32 37  0  0  0  0  0  0  0  0999 V2000
   -5.8255   10.5725  -19.1479 C   0  0  0  0  0  0  0  0  0  0  0  0
   -5.0126    9.3804  -19.4551 C   0  0  0  0  0  0  0  0  0  0  0  0
   -3.7727    9.2109  -20.0299 C   0  0  0  0  0  0  0  0  0  0  0  0
   -3.5128    7.8214  -20.0139 C   0  0  0  0  0  0  0  0  0  0  0  0
   -4.6092    7.2212  -19.4277 C   0  0  0  0  0  0  0  0  0  0  0  0
   -4.9204    5.7997  -19.1024 C   0  0  0  0  0  0  0  0  0  0  0  0
   -5.1242    5.6097  -17.6734 N   0  0  0  0  0  0  0  0  0  0  0  0
   -4.1733    5.9546  -16.7609 N   0  0  0  0  0  0  0  0  0  0  0  0
   -4.8124    5.8033  -15.5923 C   0  0  0  0  0  0  0  0  0  0  0  0
   -6.1108    5.2642  -15.7349 C   0  0  0  0  0  0  0  0  0  0  0  0
   -7.2047    4.9133  -14.9286 C   0  0  0  0  0  0  0  0  0  0  0  0
   -7.1802    5.2635  -13.4858 C   0  0  0  0  0  0  0  0  0  0  0  0
   -6.6911    6.2887  -13.2078 O   0  0  0  0  0  0  0  0  0  0  0  0
   -7.8802    4.2086  -12.5906 N   0  0  0  0  0  0  0  0  0  0  0  0
   -8.0337    4.1546  -11.2039 C   0  0  0  0  0  0  0  0  0  0  0  0
   -7.5627    5.2107  -10.3970 C   0  0  0  0  0  0  0  0  0  0  0  0
   -7.7010    5.1870   -9.0034 C   0  0  0  0  0  0  0  0  0  0  0  0
   -8.3154    4.0921   -8.4319 C   0  0  0  0  0  0  0  0  0  0  0  0
   -8.7888    3.0563   -9.2372 C   0  0  0  0  0  0  0  0  0  0  0  0
   -8.6613    3.0543  -10.6175 C   0  0  0  0  0  0  0  0  0  0  0  0
   -9.4184    2.0689   -8.3519 C   0  0  0  0  0  0  0  0  0  0  0  0
   -9.9771    1.0488   -8.6921 O   0  0  0  0  0  0  0  0  0  0  0  0
   -9.2935    2.5420   -7.0624 N   0  0  0  0  0  0  0  0  0  0  0  0
   -8.5883    3.7913   -6.9976 C   0  0  0  0  0  0  0  0  0  0  0  0
   -8.3404    4.3971  -15.5686 C   0  0  0  0  0  0  0  0  0  0  0  0
   -8.3603    4.2470  -16.9616 C   0  0  0  0  0  0  0  0  0  0  0  0
   -9.6160    3.7754  -17.6603 C   0  0  0  0  0  0  0  0  0  0  0  0
   -9.7995    3.9802  -19.1445 C   0  0  0  0  0  0  0  0  0  0  0  0
   -9.5432    2.6043  -18.6097 C   0  0  0  0  0  0  0  0  0  0  0  0
   -7.3099    4.5860  -17.7409 N   0  0  0  0  0  0  0  0  0  0  0  0
   -6.2530    5.0937  -17.0974 C   0  0  0  0  0  0  0  0  0  0  0  0
   -5.5447    8.1721  -19.1140 O   0  0  0  0  0  0  0  0  0  0  0  0
  1  2  1  0
  2  3  2  0
  3  4  1  0
  4  5  2  0
  5  6  1  0
  6  7  1  0
  7  8  1  0
  8  9  2  0
  9 10  1  0
 10 11  2  0
 11 12  1  0
 12 13  2  0
 12 14  1  0
 14 15  1  0
 15 16  2  0
 16 17  1  0
 17 18  2  0
 18 19  1  0
 19 20  2  0
 19 21  1  0
 21 22  2  0
 21 23  1  0
 23 24  1  0
 11 25  1  0
 25 26  2  0
 26 27  1  0
 27 28  1  0
 28 29  1  0
 26 30  1  0
 30 31  2  0
  5 32  1  0
 32  2  1  0
 31  7  1  0
 31 10  1  0
 20 15  1  0
 29 27  1  0
 24 18  1  0
M  END
>  <name>  (689) 
P125529

>  <alias>  (689) 
None

>  <smina_score_min>  (689) 
-9.075

>  <exports>  (689) 
['/opt/xchem-fragalysis-2/maxwin/BulkDock/OUTPUTS/openbind_xx01zvns2b_c2_elabs_1LOUTNY.sdf', '/opt/xchem-fragalysis-2/maxwin/BulkDock/OUTPUTS/openbind_xx01zvns2b_c2_elabs_1LSYIIV.sdf']

>  <tags>  (689) 
syndirella_placed,openbind_xx01zvns2b_c2_elabs,openbind_xx01zvns2b_c2_elabs_scored_6.2plus,syndirella_product,openbind_xx01zvns2b_c2_elabs_scored,openbind_xx01zvns2b_c2_elabs_scored_top80percent,BulkDock Fragalysis export

>  <subsites>  (689) 
1 - Z4590/B/203/1

>  <smiles>  (689) 
Cc1ccc(Cn2ncc3c(C(=O)Nc4ccc5c(c4)C(=O)NC5)cc(C4CC4)nc32)o1

>  <HIPPO Pose ID>  (689) 
125529

>  <energy_score>  (689) 
-48.518376

>  <inchikey>  (689) 
SBXMNBPAQNVRRY-UHFFFAOYSA-N

>  <gnina_score_min>  (689) 
6.313

>  <gnina_score>  (689) 
6.39

>  <ref_mols>  (689) 
Z3559a

>  <HIPPO Compound ID>  (689) 
179087

>  <distance_score>  (689) 
0.32104

>  <rmsd(smina/fragmenstein)>  (689) 
0.336

>  <ref_pdb>  (689) 
Z3559a

>  <inspiration_score>  (689) 
None

$$$$
P125530
     RDKit          3D

 32 37  0  0  0  0  0  0  0  0999 V2000
   -7.0796    2.6892  -21.0937 C   0  0  0  0  0  0  0  0  0  0  0  0
   -5.9856    3.6700  -21.0412 C   0  0  0  0  0  0  0  0  0  0  0  0
   -4.8755    3.9684  -21.8006 C   0  0  0  0  0  0  0  0  0  0  0  0
   -4.1879    4.9968  -21.0987 C   0  0  0  0  0  0  0  0  0  0  0  0
   -4.9348    5.2569  -19.9667 C   0  0  0  0  0  0  0  0  0  0  0  0
   -4.8594    6.2444  -18.8759 C   0  0  0  0  0  0  0  0  0  0  0  0
   -5.0339    5.7188  -17.5222 N   0  0  0  0  0  0  0  0  0  0  0  0
   -4.1183    6.0815  -16.5774 N   0  0  0  0  0  0  0  0  0  0  0  0
   -4.7461    5.8400  -15.4224 C   0  0  0  0  0  0  0  0  0  0  0  0
   -6.0403    5.3129  -15.5973 C   0  0  0  0  0  0  0  0  0  0  0  0
   -7.1391    4.9569  -14.8042 C   0  0  0  0  0  0  0  0  0  0  0  0
   -7.1266    5.3087  -13.3666 C   0  0  0  0  0  0  0  0  0  0  0  0
   -6.7069    6.3602  -13.0799 O   0  0  0  0  0  0  0  0  0  0  0  0
   -7.7002    4.1828  -12.4772 N   0  0  0  0  0  0  0  0  0  0  0  0
   -7.9562    4.1528  -11.1076 C   0  0  0  0  0  0  0  0  0  0  0  0
   -7.6519    5.2662  -10.2989 C   0  0  0  0  0  0  0  0  0  0  0  0
   -7.8388    5.2235   -8.9151 C   0  0  0  0  0  0  0  0  0  0  0  0
   -8.3242    4.0494   -8.3801 C   0  0  0  0  0  0  0  0  0  0  0  0
   -8.6441    2.9443   -9.1648 C   0  0  0  0  0  0  0  0  0  0  0  0
   -8.4752    2.9836  -10.5403 C   0  0  0  0  0  0  0  0  0  0  0  0
   -9.0749    1.8190   -8.2865 C   0  0  0  0  0  0  0  0  0  0  0  0
   -9.0912    2.4229   -6.9700 N   0  0  0  0  0  0  0  0  0  0  0  0
   -8.5466    3.6897   -6.9742 C   0  0  0  0  0  0  0  0  0  0  0  0
   -8.2642    4.3789   -6.0120 O   0  0  0  0  0  0  0  0  0  0  0  0
   -8.2792    4.4502  -15.4394 C   0  0  0  0  0  0  0  0  0  0  0  0
   -8.3180    4.3601  -16.8328 C   0  0  0  0  0  0  0  0  0  0  0  0
   -9.5884    3.8966  -17.5281 C   0  0  0  0  0  0  0  0  0  0  0  0
   -9.7560    4.0926  -19.0159 C   0  0  0  0  0  0  0  0  0  0  0  0
   -9.5568    2.7148  -18.4636 C   0  0  0  0  0  0  0  0  0  0  0  0
   -7.2878    4.7740  -17.6041 N   0  0  0  0  0  0  0  0  0  0  0  0
   -6.1897    5.2075  -16.9667 C   0  0  0  0  0  0  0  0  0  0  0  0
   -6.0172    4.4523  -19.9462 O   0  0  0  0  0  0  0  0  0  0  0  0
  1  2  1  0
  2  3  2  0
  3  4  1  0
  4  5  2  0
  5  6  1  0
  6  7  1  0
  7  8  1  0
  8  9  2  0
  9 10  1  0
 10 11  2  0
 11 12  1  0
 12 13  2  0
 12 14  1  0
 14 15  1  0
 15 16  2  0
 16 17  1  0
 17 18  2  0
 18 19  1  0
 19 20  2  0
 19 21  1  0
 21 22  1  0
 22 23  1  0
 23 24  2  0
 11 25  1  0
 25 26  2  0
 26 27  1  0
 27 28  1  0
 28 29  1  0
 26 30  1  0
 30 31  2  0
  5 32  1  0
 32  2  1  0
 31  7  1  0
 31 10  1  0
 20 15  1  0
 29 27  1  0
 23 18  1  0
M  END
>  <name>  (690) 
P125530

>  <alias>  (690) 
None

>  <smina_score_min>  (690) 
-9.749

>  <exports>  (690) 
['/opt/xchem-fragalysis-2/maxwin/BulkDock/OUTPUTS/openbind_xx01zvns2b_c2_elabs_1LOUTNY.sdf', '/opt/xchem-fragalysis-2/maxwin/BulkDock/OUTPUTS/openbind_xx01zvns2b_c2_elabs_1LSYIIV.sdf']

>  <tags>  (690) 
syndirella_placed,openbind_xx01zvns2b_c2_elabs,openbind_xx01zvns2b_c2_elabs_scored_6.2plus,syndirella_product,openbind_xx01zvns2b_c2_elabs_scored,openbind_xx01zvns2b_c2_elabs_scored_top80percent,BulkDock Fragalysis export

>  <subsites>  (690) 
1 - Z4590/B/203/1

>  <smiles>  (690) 
Cc1ccc(Cn2ncc3c(C(=O)Nc4ccc5c(c4)CNC5=O)cc(C4CC4)nc32)o1

>  <HIPPO Pose ID>  (690) 
125530

>  <energy_score>  (690) 
-12.344478

>  <inchikey>  (690) 
UETWDSIVWTZEBI-UHFFFAOYSA-N

>  <gnina_score_min>  (690) 
6.348

>  <gnina_score>  (690) 
6.27

>  <ref_mols>  (690) 
Z3559a

>  <HIPPO Compound ID>  (690) 
179088

>  <distance_score>  (690) 
0.408424

>  <rmsd(smina/fragmenstein)>  (690) 
1.457

>  <ref_pdb>  (690) 
Z3559a

>  <inspiration_score>  (690) 
None

$$$$
P125531
     RDKit          3D

 32 36  0  0  0  0  0  0  0  0999 V2000
   -7.1577    6.5141   -3.8142 C   0  0  0  0  0  0  0  0  0  0  0  0
   -8.2634    5.5067   -3.5681 C   0  0  0  0  0  0  0  0  0  0  0  0
   -9.0702    5.4367   -4.7411 O   0  0  0  0  0  0  0  0  0  0  0  0
  -10.1086    4.4595   -4.6500 C   0  0  0  0  0  0  0  0  0  0  0  0
   -9.6290    3.0419   -4.9370 C   0  0  0  0  0  0  0  0  0  0  0  0
   -9.8738    2.5087   -6.3535 C   0  0  0  0  0  0  0  0  0  0  0  0
   -8.8212    2.8449   -7.2905 N   0  0  0  0  0  0  0  0  0  0  0  0
   -8.5530    4.2699   -7.4643 C   0  0  0  0  0  0  0  0  0  0  0  0
   -8.2743    4.4427   -8.9144 C   0  0  0  0  0  0  0  0  0  0  0  0
   -7.9016    5.5958   -9.5701 C   0  0  0  0  0  0  0  0  0  0  0  0
   -7.7363    5.5296  -10.9491 C   0  0  0  0  0  0  0  0  0  0  0  0
   -7.9289    4.3239  -11.6488 C   0  0  0  0  0  0  0  0  0  0  0  0
   -7.7078    4.2980  -13.0241 N   0  0  0  0  0  0  0  0  0  0  0  0
   -7.4338    5.4458  -14.0159 C   0  0  0  0  0  0  0  0  0  0  0  0
   -7.4259    6.6012  -13.8525 O   0  0  0  0  0  0  0  0  0  0  0  0
   -7.1377    4.9750  -15.3744 C   0  0  0  0  0  0  0  0  0  0  0  0
   -8.1256    4.4150  -16.1890 C   0  0  0  0  0  0  0  0  0  0  0  0
   -7.8946    4.3268  -17.5754 C   0  0  0  0  0  0  0  0  0  0  0  0
   -8.8764    3.7927  -18.5832 C   0  0  0  0  0  0  0  0  0  0  0  0
  -10.3492    3.6777  -18.3473 C   0  0  0  0  0  0  0  0  0  0  0  0
   -9.4876    2.4401  -18.3782 C   0  0  0  0  0  0  0  0  0  0  0  0
   -6.7504    4.8051  -18.1305 N   0  0  0  0  0  0  0  0  0  0  0  0
   -5.8378    5.3555  -17.3296 C   0  0  0  0  0  0  0  0  0  0  0  0
   -5.9686    5.3878  -15.9624 C   0  0  0  0  0  0  0  0  0  0  0  0
   -4.7336    5.9803  -15.4638 C   0  0  0  0  0  0  0  0  0  0  0  0
   -4.4386    6.2023  -14.3072 O   0  0  0  0  0  0  0  0  0  0  0  0
   -3.9355    6.2200  -16.5753 N   0  0  0  0  0  0  0  0  0  0  0  0
   -4.6967    6.0795  -17.7581 N   0  0  0  0  0  0  0  0  0  0  0  0
   -4.0501    5.5245  -18.9284 C   0  0  0  0  0  0  0  0  0  0  0  0
   -8.3119    3.1640  -10.9676 C   0  0  0  0  0  0  0  0  0  0  0  0
   -8.4932    3.2469   -9.5943 C   0  0  0  0  0  0  0  0  0  0  0  0
   -8.9656    2.2123   -8.6188 C   0  0  0  0  0  0  0  0  0  0  0  0
  1  2  1  0
  2  3  1  0
  3  4  1  0
  4  5  1  0
  5  6  1  0
  6  7  1  0
  7  8  1  0
  8  9  1  0
  9 10  2  0
 10 11  1  0
 11 12  2  0
 12 13  1  0
 13 14  1  0
 14 15  2  0
 14 16  1  0
 16 17  2  0
 17 18  1  0
 18 19  1  0
 19 20  1  0
 20 21  1  0
 18 22  2  0
 22 23  1  0
 23 24  2  0
 24 25  1  0
 25 26  2  0
 25 27  1  0
 27 28  1  0
 28 29  1  0
 12 30  1  0
 30 31  2  0
 31 32  1  0
 32  7  1  0
 31  9  1  0
 24 16  1  0
 21 19  1  0
 28 23  1  0
M  END
>  <name>  (691) 
P125531

>  <alias>  (691) 
None

>  <smina_score_min>  (691) 
-8.512

>  <exports>  (691) 
['/opt/xchem-fragalysis-2/maxwin/BulkDock/OUTPUTS/openbind_xx01zvns2b_c2_elabs_1LOUTNY.sdf', '/opt/xchem-fragalysis-2/maxwin/BulkDock/OUTPUTS/openbind_xx01zvns2b_c2_elabs_1LSYIIV.sdf']

>  <tags>  (691) 
syndirella_placed,openbind_xx01zvns2b_c2_elabs,openbind_xx01zvns2b_c2_elabs_scored_6.2plus,syndirella_product,openbind_xx01zvns2b_c2_elabs_scored,openbind_xx01zvns2b_c2_elabs_scored_top80percent,BulkDock Fragalysis export

>  <subsites>  (691) 
1 - Z4590/B/203/1

>  <smiles>  (691) 
CCOCCCN1Cc2ccc(NC(=O)c3cc(C4CC4)nc4c3c(=O)[nH]n4C)cc2C1

>  <HIPPO Pose ID>  (691) 
125531

>  <energy_score>  (691) 
-41.296616

>  <inchikey>  (691) 
BYEODOGECSOIFH-UHFFFAOYSA-N

>  <gnina_score_min>  (691) 
6.261

>  <gnina_score>  (691) 
6.263

>  <ref_mols>  (691) 
Z3559a

>  <HIPPO Compound ID>  (691) 
179000

>  <distance_score>  (691) 
0.734279

>  <rmsd(smina/fragmenstein)>  (691) 
0.946

>  <ref_pdb>  (691) 
Z3559a

>  <inspiration_score>  (691) 
None

$$$$
P125534
     RDKit          3D

 32 36  0  0  0  0  0  0  0  0999 V2000
   -9.2798    4.8708   -2.7247 C   0  0  0  0  0  0  0  0  0  0  0  0
   -9.0666    3.8138   -3.7988 C   0  0  0  0  0  0  0  0  0  0  0  0
  -10.2645    3.7296   -4.7443 C   0  0  0  0  0  0  0  0  0  0  0  0
  -10.1103    2.7827   -5.9519 C   0  0  0  0  0  0  0  0  0  0  0  0
   -8.9658    3.0201   -6.8276 N   0  0  0  0  0  0  0  0  0  0  0  0
   -8.6205    4.4213   -7.0618 C   0  0  0  0  0  0  0  0  0  0  0  0
   -8.2875    4.5276   -8.5037 C   0  0  0  0  0  0  0  0  0  0  0  0
   -7.8248    5.6416   -9.1696 C   0  0  0  0  0  0  0  0  0  0  0  0
   -7.6562    5.5460  -10.5426 C   0  0  0  0  0  0  0  0  0  0  0  0
   -7.9575    4.3571  -11.2299 C   0  0  0  0  0  0  0  0  0  0  0  0
   -7.7989    4.3326  -12.6128 N   0  0  0  0  0  0  0  0  0  0  0  0
   -7.2698    5.4148  -13.5821 C   0  0  0  0  0  0  0  0  0  0  0  0
   -6.9565    6.5227  -13.3825 O   0  0  0  0  0  0  0  0  0  0  0  0
   -7.2093    4.9601  -14.9784 C   0  0  0  0  0  0  0  0  0  0  0  0
   -8.3201    4.4255  -15.6298 C   0  0  0  0  0  0  0  0  0  0  0  0
   -8.2855    4.2465  -17.0145 C   0  0  0  0  0  0  0  0  0  0  0  0
   -9.5354    3.7777  -17.7290 C   0  0  0  0  0  0  0  0  0  0  0  0
   -9.4723    2.5817  -18.6442 C   0  0  0  0  0  0  0  0  0  0  0  0
   -9.6879    3.9491  -19.2184 C   0  0  0  0  0  0  0  0  0  0  0  0
   -7.1984    4.5596  -17.7625 N   0  0  0  0  0  0  0  0  0  0  0  0
   -6.1429    5.0545  -17.0956 C   0  0  0  0  0  0  0  0  0  0  0  0
   -6.0724    5.2658  -15.7322 C   0  0  0  0  0  0  0  0  0  0  0  0
   -4.7894    5.8016  -15.5168 C   0  0  0  0  0  0  0  0  0  0  0  0
   -4.0798    5.9087  -16.6424 N   0  0  0  0  0  0  0  0  0  0  0  0
   -4.9474    5.5010  -17.6089 N   0  0  0  0  0  0  0  0  0  0  0  0
   -4.5358    5.6727  -19.0048 C   0  0  1  0  0  0  0  0  0  0  0  0
   -5.4457    4.9931  -20.0215 C   0  0  0  0  0  0  0  0  0  0  0  0
   -4.3860    7.1800  -19.3211 C   0  0  0  0  0  0  0  0  0  0  0  0
   -3.8290    7.4699  -20.7080 C   0  0  0  0  0  0  0  0  0  0  0  0
   -8.4188    3.2305  -10.5360 C   0  0  0  0  0  0  0  0  0  0  0  0
   -8.5739    3.3339   -9.1589 C   0  0  0  0  0  0  0  0  0  0  0  0
   -9.0821    2.3394   -8.1526 C   0  0  0  0  0  0  0  0  0  0  0  0
  1  2  1  0
  2  3  1  0
  3  4  1  0
  4  5  1  0
  5  6  1  0
  6  7  1  0
  7  8  2  0
  8  9  1  0
  9 10  2  0
 10 11  1  0
 11 12  1  0
 12 13  2  0
 12 14  1  0
 14 15  2  0
 15 16  1  0
 16 17  1  0
 17 18  1  0
 18 19  1  0
 16 20  2  0
 20 21  1  0
 21 22  2  0
 22 23  1  0
 23 24  2  0
 24 25  1  0
 25 26  1  0
 26 27  1  6
 26 28  1  0
 28 29  1  0
 10 30  1  0
 30 31  2  0
 31 32  1  0
 32  5  1  0
 31  7  1  0
 22 14  1  0
 19 17  1  0
 25 21  1  0
M  END
>  <name>  (692) 
P125534

>  <alias>  (692) 
None

>  <smina_score_min>  (692) 
-9.001

>  <exports>  (692) 
['/opt/xchem-fragalysis-2/maxwin/BulkDock/OUTPUTS/openbind_xx01zvns2b_c2_elabs_1LOUTNY.sdf', '/opt/xchem-fragalysis-2/maxwin/BulkDock/OUTPUTS/openbind_xx01zvns2b_c2_elabs_1LSYIIV.sdf']

>  <tags>  (692) 
syndirella_placed,openbind_xx01zvns2b_c2_elabs,openbind_xx01zvns2b_c2_elabs_scored_6.2plus,syndirella_product,openbind_xx01zvns2b_c2_elabs_scored,openbind_xx01zvns2b_c2_elabs_scored_top80percent,BulkDock Fragalysis export

>  <subsites>  (692) 
1 - Z4590/B/203/1

>  <smiles>  (692) 
CCCCN1Cc2ccc(NC(=O)c3cc(C4CC4)nc4c3cnn4[C@@H](C)CC)cc2C1

>  <HIPPO Pose ID>  (692) 
125534

>  <energy_score>  (692) 
-28.931058

>  <inchikey>  (692) 
NDLPCZKGHGHRHS-KRWDZBQOSA-N

>  <gnina_score_min>  (692) 
6.517

>  <gnina_score>  (692) 
6.418

>  <ref_mols>  (692) 
Z3559a

>  <HIPPO Compound ID>  (692) 
179210

>  <distance_score>  (692) 
0.478985

>  <rmsd(smina/fragmenstein)>  (692) 
0.971

>  <ref_pdb>  (692) 
Z3559a

>  <inspiration_score>  (692) 
None

$$$$
P125538
     RDKit          3D

 32 36  0  0  0  0  0  0  0  0999 V2000
   -4.3192    8.0254  -20.8167 C   0  0  0  0  0  0  0  0  0  0  0  0
   -4.2349    7.4306  -19.4179 C   0  0  0  0  0  0  0  0  0  0  0  0
   -5.1013    6.1659  -19.2216 C   0  0  1  0  0  0  0  0  0  0  0  0
   -4.6906    5.0325  -20.1501 C   0  0  0  0  0  0  0  0  0  0  0  0
   -5.1422    5.7307  -17.8222 N   0  0  0  0  0  0  0  0  0  0  0  0
   -4.1662    6.0807  -16.9481 N   0  0  0  0  0  0  0  0  0  0  0  0
   -4.7178    5.8314  -15.7543 C   0  0  0  0  0  0  0  0  0  0  0  0
   -6.0092    5.2670  -15.8472 C   0  0  0  0  0  0  0  0  0  0  0  0
   -7.0549    4.8825  -14.9894 C   0  0  0  0  0  0  0  0  0  0  0  0
   -6.9609    5.2471  -13.5504 C   0  0  0  0  0  0  0  0  0  0  0  0
   -6.3701    6.2303  -13.3195 O   0  0  0  0  0  0  0  0  0  0  0  0
   -7.6696    4.2516  -12.5936 N   0  0  0  0  0  0  0  0  0  0  0  0
   -7.8722    4.3090  -11.2109 C   0  0  0  0  0  0  0  0  0  0  0  0
   -7.4528    5.4579  -10.5167 C   0  0  0  0  0  0  0  0  0  0  0  0
   -7.5908    5.5617   -9.1356 C   0  0  0  0  0  0  0  0  0  0  0  0
   -8.1510    4.4993   -8.4590 C   0  0  0  0  0  0  0  0  0  0  0  0
   -8.5926    3.3616   -9.1257 C   0  0  0  0  0  0  0  0  0  0  0  0
   -8.4637    3.2479  -10.5107 C   0  0  0  0  0  0  0  0  0  0  0  0
   -9.1993    2.4213   -8.1210 C   0  0  0  0  0  0  0  0  0  0  0  0
   -8.9650    3.0420   -6.7786 N   0  0  0  0  0  0  0  0  0  0  0  0
  -10.1539    3.1153   -5.9156 C   0  0  0  0  0  0  0  0  0  0  0  0
  -10.8414    1.8164   -5.5097 C   0  0  0  0  0  0  0  0  0  0  0  0
  -10.9306    0.9689   -6.5530 F   0  0  0  0  0  0  0  0  0  0  0  0
  -12.1128    2.1008   -5.1064 F   0  0  0  0  0  0  0  0  0  0  0  0
   -8.3898    4.3782   -6.9963 C   0  0  0  0  0  0  0  0  0  0  0  0
   -8.2116    4.3601  -15.5821 C   0  0  0  0  0  0  0  0  0  0  0  0
   -8.3022    4.2550  -16.9792 C   0  0  0  0  0  0  0  0  0  0  0  0
   -9.5810    3.7678  -17.6234 C   0  0  0  0  0  0  0  0  0  0  0  0
   -9.8554    4.0069  -19.0883 C   0  0  0  0  0  0  0  0  0  0  0  0
   -9.5259    2.6258  -18.6095 C   0  0  0  0  0  0  0  0  0  0  0  0
   -7.3099    4.6556  -17.8084 N   0  0  0  0  0  0  0  0  0  0  0  0
   -6.2223    5.1489  -17.2062 C   0  0  0  0  0  0  0  0  0  0  0  0
  1  2  1  0
  2  3  1  0
  3  4  1  6
  3  5  1  0
  5  6  1  0
  6  7  2  0
  7  8  1  0
  8  9  2  0
  9 10  1  0
 10 11  2  0
 10 12  1  0
 12 13  1  0
 13 14  2  0
 14 15  1  0
 15 16  2  0
 16 17  1  0
 17 18  2  0
 17 19  1  0
 19 20  1  0
 20 21  1  0
 21 22  1  0
 22 23  1  0
 22 24  1  0
 20 25  1  0
  9 26  1  0
 26 27  2  0
 27 28  1  0
 28 29  1  0
 29 30  1  0
 27 31  1  0
 31 32  2  0
 32  5  1  0
 32  8  1  0
 18 13  1  0
 30 28  1  0
 25 16  1  0
M  END
>  <name>  (693) 
P125538

>  <alias>  (693) 
None

>  <smina_score_min>  (693) 
-8.603

>  <exports>  (693) 
['/opt/xchem-fragalysis-2/maxwin/BulkDock/OUTPUTS/openbind_xx01zvns2b_c2_elabs_1LOUTNY.sdf', '/opt/xchem-fragalysis-2/maxwin/BulkDock/OUTPUTS/openbind_xx01zvns2b_c2_elabs_1LSYIIV.sdf']

>  <tags>  (693) 
syndirella_placed,openbind_xx01zvns2b_c2_elabs,openbind_xx01zvns2b_c2_elabs_scored_6.2plus,syndirella_product,openbind_xx01zvns2b_c2_elabs_scored,openbind_xx01zvns2b_c2_elabs_scored_top80percent,BulkDock Fragalysis export

>  <subsites>  (693) 
1 - Z4590/B/203/1

>  <smiles>  (693) 
CC[C@@H](C)n1ncc2c(C(=O)Nc3ccc4c(c3)CN(CC(F)F)C4)cc(C3CC3)nc21

>  <HIPPO Pose ID>  (693) 
125538

>  <energy_score>  (693) 
-28.324612

>  <inchikey>  (693) 
SNCNBDWMGREBLT-CQSZACIVSA-N

>  <gnina_score_min>  (693) 
6.381

>  <gnina_score>  (693) 
6.381

>  <ref_mols>  (693) 
Z3559a

>  <HIPPO Compound ID>  (693) 
179209

>  <distance_score>  (693) 
0.507024

>  <rmsd(smina/fragmenstein)>  (693) 
0.502

>  <ref_pdb>  (693) 
Z3559a

>  <inspiration_score>  (693) 
None

$$$$
P125540
     RDKit          3D

 32 37  0  0  0  0  0  0  0  0999 V2000
   -9.9704    1.0240   -8.6648 O   0  0  0  0  0  0  0  0  0  0  0  0
   -9.4173    2.0475   -8.3251 C   0  0  0  0  0  0  0  0  0  0  0  0
   -9.2915    2.5168   -7.0341 N   0  0  0  0  0  0  0  0  0  0  0  0
   -8.6059    3.7766   -6.9681 C   0  0  0  0  0  0  0  0  0  0  0  0
   -8.3489    4.0891   -8.4025 C   0  0  0  0  0  0  0  0  0  0  0  0
   -7.7650    5.2015   -8.9719 C   0  0  0  0  0  0  0  0  0  0  0  0
   -7.6405    5.2368  -10.3659 C   0  0  0  0  0  0  0  0  0  0  0  0
   -8.0887    4.1722  -11.1751 C   0  0  0  0  0  0  0  0  0  0  0  0
   -7.9371    4.2363  -12.5615 N   0  0  0  0  0  0  0  0  0  0  0  0
   -7.3095    5.3351  -13.4551 C   0  0  0  0  0  0  0  0  0  0  0  0
   -6.8916    6.3909  -13.1768 O   0  0  0  0  0  0  0  0  0  0  0  0
   -7.2710    4.9631  -14.8887 C   0  0  0  0  0  0  0  0  0  0  0  0
   -8.3709    4.4307  -15.5682 C   0  0  0  0  0  0  0  0  0  0  0  0
   -8.3229    4.2577  -16.9585 C   0  0  0  0  0  0  0  0  0  0  0  0
   -9.5609    3.7874  -17.6942 C   0  0  0  0  0  0  0  0  0  0  0  0
   -9.4801    2.5969  -18.6163 C   0  0  0  0  0  0  0  0  0  0  0  0
   -9.6892    3.9667  -19.1863 C   0  0  0  0  0  0  0  0  0  0  0  0
   -7.2292    4.5719  -17.6954 N   0  0  0  0  0  0  0  0  0  0  0  0
   -6.1960    5.0786  -17.0070 C   0  0  0  0  0  0  0  0  0  0  0  0
   -6.1375    5.2933  -15.6429 C   0  0  0  0  0  0  0  0  0  0  0  0
   -4.8533    5.8345  -15.4278 C   0  0  0  0  0  0  0  0  0  0  0  0
   -4.1357    5.9401  -16.5510 N   0  0  0  0  0  0  0  0  0  0  0  0
   -4.9970    5.5098  -17.5139 N   0  0  0  0  0  0  0  0  0  0  0  0
   -4.5726    5.4390  -18.9063 C   0  0  0  0  0  0  0  0  0  0  0  0
   -4.5837    6.7669  -19.6359 C   0  0  0  0  0  0  0  0  0  0  0  0
   -4.0529    7.9412  -19.0806 C   0  0  0  0  0  0  0  0  0  0  0  0
   -4.0081    9.1277  -19.8181 C   0  0  0  0  0  0  0  0  0  0  0  0
   -4.4721    9.1539  -21.1306 C   0  0  0  0  0  0  0  0  0  0  0  0
   -4.9812    7.9930  -21.7052 C   0  0  0  0  0  0  0  0  0  0  0  0
   -5.0377    6.8107  -20.9632 C   0  0  0  0  0  0  0  0  0  0  0  0
   -8.6819    3.0520  -10.5906 C   0  0  0  0  0  0  0  0  0  0  0  0
   -8.8046    3.0465   -9.2099 C   0  0  0  0  0  0  0  0  0  0  0  0
  1  2  2  0
  2  3  1  0
  3  4  1  0
  4  5  1  0
  5  6  2  0
  6  7  1  0
  7  8  2  0
  8  9  1  0
  9 10  1  0
 10 11  2  0
 10 12  1  0
 12 13  2  0
 13 14  1  0
 14 15  1  0
 15 16  1  0
 16 17  1  0
 14 18  2  0
 18 19  1  0
 19 20  2  0
 20 21  1  0
 21 22  2  0
 22 23  1  0
 23 24  1  0
 24 25  1  0
 25 26  2  0
 26 27  1  0
 27 28  2  0
 28 29  1  0
 29 30  2  0
  8 31  1  0
 31 32  2  0
 32  2  1  0
 32  5  1  0
 20 12  1  0
 30 25  1  0
 17 15  1  0
 23 19  1  0
M  END
>  <name>  (694) 
P125540

>  <alias>  (694) 
None

>  <smina_score_min>  (694) 
-9.376

>  <exports>  (694) 
['/opt/xchem-fragalysis-2/maxwin/BulkDock/OUTPUTS/openbind_xx01zvns2b_c2_elabs_1LOUTNY.sdf', '/opt/xchem-fragalysis-2/maxwin/BulkDock/OUTPUTS/openbind_xx01zvns2b_c2_elabs_1LSYIIV.sdf']

>  <tags>  (694) 
syndirella_placed,openbind_xx01zvns2b_c2_elabs,openbind_xx01zvns2b_c2_elabs_scored_6.2plus,syndirella_product,openbind_xx01zvns2b_c2_elabs_scored,openbind_xx01zvns2b_c2_elabs_scored_top80percent,BulkDock Fragalysis export

>  <subsites>  (694) 
1 - Z4590/B/203/1

>  <smiles>  (694) 
O=C1NCc2ccc(NC(=O)c3cc(C4CC4)nc4c3cnn4Cc3ccccc3)cc21

>  <HIPPO Pose ID>  (694) 
125540

>  <energy_score>  (694) 
-23.610226

>  <inchikey>  (694) 
OFVIIOWYDFEUSF-UHFFFAOYSA-N

>  <gnina_score_min>  (694) 
6.403

>  <gnina_score>  (694) 
6.322

>  <ref_mols>  (694) 
Z3559a

>  <HIPPO Compound ID>  (694) 
179069

>  <distance_score>  (694) 
0.346663

>  <rmsd(smina/fragmenstein)>  (694) 
0.855

>  <ref_pdb>  (694) 
Z3559a

>  <inspiration_score>  (694) 
None

$$$$
P125541
     RDKit          3D

 32 37  0  0  0  0  0  0  0  0999 V2000
   -8.1995    4.3968   -6.1060 O   0  0  0  0  0  0  0  0  0  0  0  0
   -8.4976    3.7109   -7.0658 C   0  0  0  0  0  0  0  0  0  0  0  0
   -9.0358    2.4414   -7.0575 N   0  0  0  0  0  0  0  0  0  0  0  0
   -9.0393    1.8426   -8.3764 C   0  0  0  0  0  0  0  0  0  0  0  0
   -8.6417    2.9784   -9.2589 C   0  0  0  0  0  0  0  0  0  0  0  0
   -8.5331    3.0400  -10.6408 C   0  0  0  0  0  0  0  0  0  0  0  0
   -8.0791    4.2331  -11.2183 C   0  0  0  0  0  0  0  0  0  0  0  0
   -7.9324    4.3047  -12.6044 N   0  0  0  0  0  0  0  0  0  0  0  0
   -7.2834    5.3937  -13.4910 C   0  0  0  0  0  0  0  0  0  0  0  0
   -6.8391    6.4359  -13.2067 O   0  0  0  0  0  0  0  0  0  0  0  0
   -7.2474    5.0082  -14.9210 C   0  0  0  0  0  0  0  0  0  0  0  0
   -8.3526    4.4668  -15.5860 C   0  0  0  0  0  0  0  0  0  0  0  0
   -8.3111    4.2662  -16.9722 C   0  0  0  0  0  0  0  0  0  0  0  0
   -9.5544    3.7867  -17.6932 C   0  0  0  0  0  0  0  0  0  0  0  0
   -9.4763    2.5995  -18.6201 C   0  0  0  0  0  0  0  0  0  0  0  0
   -9.7020    3.9697  -19.1831 C   0  0  0  0  0  0  0  0  0  0  0  0
   -7.2177    4.5595  -17.7189 N   0  0  0  0  0  0  0  0  0  0  0  0
   -6.1827    5.0812  -17.0437 C   0  0  0  0  0  0  0  0  0  0  0  0
   -6.1149    5.3177  -15.6835 C   0  0  0  0  0  0  0  0  0  0  0  0
   -4.8235    5.8478  -15.4828 C   0  0  0  0  0  0  0  0  0  0  0  0
   -4.1100    5.9237  -16.6120 N   0  0  0  0  0  0  0  0  0  0  0  0
   -4.9911    5.5141  -17.5650 N   0  0  0  0  0  0  0  0  0  0  0  0
   -4.5926    5.4632  -18.9654 C   0  0  0  0  0  0  0  0  0  0  0  0
   -4.6072    6.8005  -19.6774 C   0  0  0  0  0  0  0  0  0  0  0  0
   -4.1114    7.9781  -19.0969 C   0  0  0  0  0  0  0  0  0  0  0  0
   -4.0696    9.1733  -19.8206 C   0  0  0  0  0  0  0  0  0  0  0  0
   -4.5013    9.2062  -21.1438 C   0  0  0  0  0  0  0  0  0  0  0  0
   -4.9759    8.0434  -21.7431 C   0  0  0  0  0  0  0  0  0  0  0  0
   -5.0296    6.8521  -21.0154 C   0  0  0  0  0  0  0  0  0  0  0  0
   -7.7587    5.3401  -10.4074 C   0  0  0  0  0  0  0  0  0  0  0  0
   -7.8735    5.2714   -9.0159 C   0  0  0  0  0  0  0  0  0  0  0  0
   -8.3123    4.0812   -8.4746 C   0  0  0  0  0  0  0  0  0  0  0  0
  1  2  2  0
  2  3  1  0
  3  4  1  0
  4  5  1  0
  5  6  2  0
  6  7  1  0
  7  8  1  0
  8  9  1  0
  9 10  2  0
  9 11  1  0
 11 12  2  0
 12 13  1  0
 13 14  1  0
 14 15  1  0
 15 16  1  0
 13 17  2  0
 17 18  1  0
 18 19  2  0
 19 20  1  0
 20 21  2  0
 21 22  1  0
 22 23  1  0
 23 24  1  0
 24 25  2  0
 25 26  1  0
 26 27  2  0
 27 28  1  0
 28 29  2  0
  7 30  2  0
 30 31  1  0
 31 32  2  0
 32  2  1  0
 32  5  1  0
 19 11  1  0
 29 24  1  0
 16 14  1  0
 22 18  1  0
M  END
>  <name>  (695) 
P125541

>  <alias>  (695) 
None

>  <smina_score_min>  (695) 
-9.276

>  <exports>  (695) 
['/opt/xchem-fragalysis-2/maxwin/BulkDock/OUTPUTS/openbind_xx01zvns2b_c2_elabs_1LOUTNY.sdf', '/opt/xchem-fragalysis-2/maxwin/BulkDock/OUTPUTS/openbind_xx01zvns2b_c2_elabs_1LSYIIV.sdf']

>  <tags>  (695) 
syndirella_placed,openbind_xx01zvns2b_c2_elabs,openbind_xx01zvns2b_c2_elabs_scored_6.2plus,syndirella_product,openbind_xx01zvns2b_c2_elabs_scored,openbind_xx01zvns2b_c2_elabs_scored_top80percent,BulkDock Fragalysis export

>  <subsites>  (695) 
1 - Z4590/B/203/1

>  <smiles>  (695) 
O=C1NCc2cc(NC(=O)c3cc(C4CC4)nc4c3cnn4Cc3ccccc3)ccc21

>  <HIPPO Pose ID>  (695) 
125541

>  <energy_score>  (695) 
-57.245475

>  <inchikey>  (695) 
FXAQNICKEWSJRR-UHFFFAOYSA-N

>  <gnina_score_min>  (695) 
6.358

>  <gnina_score>  (695) 
6.337

>  <ref_mols>  (695) 
Z3559a

>  <HIPPO Compound ID>  (695) 
179068

>  <distance_score>  (695) 
0.320856

>  <rmsd(smina/fragmenstein)>  (695) 
0.746

>  <ref_pdb>  (695) 
Z3559a

>  <inspiration_score>  (695) 
None

$$$$
P125542
     RDKit          3D

 32 37  0  0  0  0  0  0  0  0999 V2000
   -9.5261    1.8692   -6.2981 C   0  0  0  0  0  0  0  0  0  0  0  0
   -9.5938    2.7489   -7.4403 N   0  0  0  0  0  0  0  0  0  0  0  0
   -8.6838    3.9058   -7.3248 C   0  0  0  0  0  0  0  0  0  0  0  0
   -8.3090    4.2110   -8.7386 C   0  0  0  0  0  0  0  0  0  0  0  0
   -7.7328    5.3422   -9.2791 C   0  0  0  0  0  0  0  0  0  0  0  0
   -7.5047    5.3643  -10.6579 C   0  0  0  0  0  0  0  0  0  0  0  0
   -7.8537    4.2667  -11.4632 C   0  0  0  0  0  0  0  0  0  0  0  0
   -7.6765    4.2922  -12.8397 N   0  0  0  0  0  0  0  0  0  0  0  0
   -7.0259    5.3573  -13.7472 C   0  0  0  0  0  0  0  0  0  0  0  0
   -6.6052    6.4153  -13.4904 O   0  0  0  0  0  0  0  0  0  0  0  0
   -7.0572    4.9491  -15.1675 C   0  0  0  0  0  0  0  0  0  0  0  0
   -8.2124    4.4111  -15.7507 C   0  0  0  0  0  0  0  0  0  0  0  0
   -8.2770    4.2217  -17.1326 C   0  0  0  0  0  0  0  0  0  0  0  0
   -9.5649    3.7441  -17.7599 C   0  0  0  0  0  0  0  0  0  0  0  0
   -9.5469    2.5437  -18.6709 C   0  0  0  0  0  0  0  0  0  0  0  0
   -9.8104    3.9068  -19.2377 C   0  0  0  0  0  0  0  0  0  0  0  0
   -7.2503    4.5356  -17.9544 N   0  0  0  0  0  0  0  0  0  0  0  0
   -6.1711    5.0618  -17.3586 C   0  0  0  0  0  0  0  0  0  0  0  0
   -5.9915    5.2829  -16.0078 C   0  0  0  0  0  0  0  0  0  0  0  0
   -4.7156    5.8750  -15.9163 C   0  0  0  0  0  0  0  0  0  0  0  0
   -4.1471    6.0762  -17.1119 N   0  0  0  0  0  0  0  0  0  0  0  0
   -5.0818    5.6128  -17.9876 N   0  0  0  0  0  0  0  0  0  0  0  0
   -5.1113    6.1036  -19.3593 C   0  0  0  0  0  0  0  0  0  0  0  0
   -4.1902    5.4226  -20.3342 C   0  0  0  0  0  0  0  0  0  0  0  0
   -4.7171    4.8904  -21.5224 C   0  0  0  0  0  0  0  0  0  0  0  0
   -3.8780    4.4489  -22.5432 C   0  0  0  0  0  0  0  0  0  0  0  0
   -2.4993    4.5179  -22.3817 C   0  0  0  0  0  0  0  0  0  0  0  0
   -1.9620    4.9979  -21.1880 C   0  0  0  0  0  0  0  0  0  0  0  0
   -2.8007    5.4513  -20.1690 C   0  0  0  0  0  0  0  0  0  0  0  0
   -8.4203    3.1242  -10.9009 C   0  0  0  0  0  0  0  0  0  0  0  0
   -8.6381    3.1172   -9.5385 C   0  0  0  0  0  0  0  0  0  0  0  0
   -9.2189    2.0414   -8.6844 C   0  0  0  0  0  0  0  0  0  0  0  0
  1  2  1  0
  2  3  1  0
  3  4  1  0
  4  5  2  0
  5  6  1  0
  6  7  2  0
  7  8  1  0
  8  9  1  0
  9 10  2  0
  9 11  1  0
 11 12  2  0
 12 13  1  0
 13 14  1  0
 14 15  1  0
 15 16  1  0
 13 17  2  0
 17 18  1  0
 18 19  2  0
 19 20  1  0
 20 21  2  0
 21 22  1  0
 22 23  1  0
 23 24  1  0
 24 25  2  0
 25 26  1  0
 26 27  2  0
 27 28  1  0
 28 29  2  0
  7 30  1  0
 30 31  2  0
 31 32  1  0
 32  2  1  0
 31  4  1  0
 19 11  1  0
 29 24  1  0
 16 14  1  0
 22 18  1  0
M  END
>  <name>  (696) 
P125542

>  <alias>  (696) 
None

>  <smina_score_min>  (696) 
-9.75

>  <exports>  (696) 
['/opt/xchem-fragalysis-2/maxwin/BulkDock/OUTPUTS/openbind_xx01zvns2b_c2_elabs_1LOUTNY.sdf', '/opt/xchem-fragalysis-2/maxwin/BulkDock/OUTPUTS/openbind_xx01zvns2b_c2_elabs_1LSYIIV.sdf']

>  <tags>  (696) 
syndirella_placed,openbind_xx01zvns2b_c2_elabs,openbind_xx01zvns2b_c2_elabs_scored_6.2plus,syndirella_product,openbind_xx01zvns2b_c2_elabs_scored,openbind_xx01zvns2b_c2_elabs_scored_top80percent,BulkDock Fragalysis export

>  <subsites>  (696) 
1 - Z4590/B/203/1

>  <smiles>  (696) 
CN1Cc2ccc(NC(=O)c3cc(C4CC4)nc4c3cnn4Cc3ccccc3)cc2C1

>  <HIPPO Pose ID>  (696) 
125542

>  <energy_score>  (696) 
-39.396201

>  <inchikey>  (696) 
UPVIRTJCEOOBPM-UHFFFAOYSA-N

>  <gnina_score_min>  (696) 
6.397

>  <gnina_score>  (696) 
6.396

>  <ref_mols>  (696) 
Z3559a

>  <HIPPO Compound ID>  (696) 
179067

>  <distance_score>  (696) 
0.47079

>  <rmsd(smina/fragmenstein)>  (696) 
0.313

>  <ref_pdb>  (696) 
Z3559a

>  <inspiration_score>  (696) 
None

$$$$
P125545
     RDKit          3D

 32 36  0  0  0  0  0  0  0  0999 V2000
   -3.7717    7.3986  -20.9144 C   0  0  0  0  0  0  0  0  0  0  0  0
   -4.3225    7.1303  -19.5206 C   0  0  0  0  0  0  0  0  0  0  0  0
   -4.4801    5.6281  -19.1843 C   0  0  2  0  0  0  0  0  0  0  0  0
   -5.4005    4.9419  -20.1840 C   0  0  0  0  0  0  0  0  0  0  0  0
   -4.8840    5.4763  -17.7851 N   0  0  0  0  0  0  0  0  0  0  0  0
   -3.9968    5.8786  -16.8347 N   0  0  0  0  0  0  0  0  0  0  0  0
   -4.6923    5.7953  -15.7002 C   0  0  0  0  0  0  0  0  0  0  0  0
   -5.9879    5.2822  -15.8951 C   0  0  0  0  0  0  0  0  0  0  0  0
   -7.1169    5.0059  -15.1200 C   0  0  0  0  0  0  0  0  0  0  0  0
   -7.1282    5.4604  -13.7227 C   0  0  0  0  0  0  0  0  0  0  0  0
   -6.6422    6.4991  -13.5034 O   0  0  0  0  0  0  0  0  0  0  0  0
   -7.8142    4.4562  -12.7725 N   0  0  0  0  0  0  0  0  0  0  0  0
   -7.9569    4.4745  -11.3924 C   0  0  0  0  0  0  0  0  0  0  0  0
   -7.5040    5.6113  -10.6905 C   0  0  0  0  0  0  0  0  0  0  0  0
   -7.5972    5.6953   -9.3097 C   0  0  0  0  0  0  0  0  0  0  0  0
   -8.1694    4.6313   -8.6567 C   0  0  0  0  0  0  0  0  0  0  0  0
   -8.6407    3.5163   -9.3476 C   0  0  0  0  0  0  0  0  0  0  0  0
   -8.5360    3.3983  -10.7204 C   0  0  0  0  0  0  0  0  0  0  0  0
   -9.2696    2.6255   -8.3626 C   0  0  0  0  0  0  0  0  0  0  0  0
   -9.7879    1.5626   -8.6377 O   0  0  0  0  0  0  0  0  0  0  0  0
   -9.1847    3.2755   -7.1274 N   0  0  0  0  0  0  0  0  0  0  0  0
   -9.4284    2.6137   -5.8561 C   0  0  0  0  0  0  0  0  0  0  0  0
  -10.8656    2.1335   -5.7294 C   0  0  0  0  0  0  0  0  0  0  0  0
   -9.1009    3.4995   -4.6438 C   0  0  0  0  0  0  0  0  0  0  0  0
   -8.3771    4.4670   -7.2044 C   0  0  0  0  0  0  0  0  0  0  0  0
   -8.2420    4.4692  -15.7425 C   0  0  0  0  0  0  0  0  0  0  0  0
   -8.2298    4.2629  -17.1228 C   0  0  0  0  0  0  0  0  0  0  0  0
   -9.4969    3.7799  -17.7954 C   0  0  0  0  0  0  0  0  0  0  0  0
   -9.4606    2.5591  -18.6772 C   0  0  0  0  0  0  0  0  0  0  0  0
   -9.6822    3.9123  -19.2833 C   0  0  0  0  0  0  0  0  0  0  0  0
   -7.1536    4.5588  -17.8960 N   0  0  0  0  0  0  0  0  0  0  0  0
   -6.0810    5.0531  -17.2536 C   0  0  0  0  0  0  0  0  0  0  0  0
  1  2  1  0
  2  3  1  0
  3  4  1  6
  3  5  1  0
  5  6  1  0
  6  7  2  0
  7  8  1  0
  8  9  2  0
  9 10  1  0
 10 11  2  0
 10 12  1  0
 12 13  1  0
 13 14  2  0
 14 15  1  0
 15 16  2  0
 16 17  1  0
 17 18  2  0
 17 19  1  0
 19 20  2  0
 19 21  1  0
 21 22  1  0
 22 23  1  0
 22 24  1  0
 21 25  1  0
  9 26  1  0
 26 27  2  0
 27 28  1  0
 28 29  1  0
 29 30  1  0
 27 31  1  0
 31 32  2  0
 32  5  1  0
 32  8  1  0
 18 13  1  0
 30 28  1  0
 25 16  1  0
M  END
>  <name>  (697) 
P125545

>  <alias>  (697) 
None

>  <smina_score_min>  (697) 
-8.808

>  <exports>  (697) 
['/opt/xchem-fragalysis-2/maxwin/BulkDock/OUTPUTS/openbind_xx01zvns2b_c2_elabs_1LOUTNY.sdf', '/opt/xchem-fragalysis-2/maxwin/BulkDock/OUTPUTS/openbind_xx01zvns2b_c2_elabs_1LSYIIV.sdf']

>  <tags>  (697) 
syndirella_placed,openbind_xx01zvns2b_c2_elabs,openbind_xx01zvns2b_c2_elabs_scored_6.2plus,syndirella_product,openbind_xx01zvns2b_c2_elabs_scored,openbind_xx01zvns2b_c2_elabs_scored_top80percent,BulkDock Fragalysis export

>  <subsites>  (697) 
1 - Z4590/B/203/1

>  <smiles>  (697) 
CC[C@H](C)n1ncc2c(C(=O)Nc3ccc4c(c3)C(=O)N(C(C)C)C4)cc(C3CC3)nc21

>  <HIPPO Pose ID>  (697) 
125545

>  <energy_score>  (697) 
-58.963872

>  <inchikey>  (697) 
FWQPKHWYLBVVNB-HNNXBMFYSA-N

>  <gnina_score_min>  (697) 
6.214

>  <gnina_score>  (697) 
6.341

>  <ref_mols>  (697) 
Z3559a

>  <HIPPO Compound ID>  (697) 
179208

>  <distance_score>  (697) 
0.568178

>  <rmsd(smina/fragmenstein)>  (697) 
0.716

>  <ref_pdb>  (697) 
Z3559a

>  <inspiration_score>  (697) 
None

$$$$
P125546
     RDKit          3D

 32 37  0  0  0  0  0  0  0  0999 V2000
   -4.1670    6.6731  -14.7152 C   0  0  0  0  0  0  0  0  0  0  0  0
   -4.7644    6.0750  -15.9356 C   0  0  0  0  0  0  0  0  0  0  0  0
   -4.0884    6.1275  -17.0962 N   0  0  0  0  0  0  0  0  0  0  0  0
   -4.9145    5.5149  -17.9722 N   0  0  0  0  0  0  0  0  0  0  0  0
   -4.5718    5.4665  -19.3697 C   0  0  0  0  0  0  0  0  0  0  0  0
   -6.0565    5.0370  -17.4045 C   0  0  0  0  0  0  0  0  0  0  0  0
   -7.0282    4.3528  -18.0182 N   0  0  0  0  0  0  0  0  0  0  0  0
   -8.0858    4.0244  -17.2422 C   0  0  0  0  0  0  0  0  0  0  0  0
   -9.1445    3.1633  -17.8474 C   0  0  0  0  0  0  0  0  0  0  0  0
  -10.2859    3.7377  -18.6419 C   0  0  0  0  0  0  0  0  0  0  0  0
   -9.1843    2.9920  -19.3349 C   0  0  0  0  0  0  0  0  0  0  0  0
   -8.2008    4.4029  -15.9104 C   0  0  0  0  0  0  0  0  0  0  0  0
   -7.1575    5.1113  -15.3225 C   0  0  0  0  0  0  0  0  0  0  0  0
   -7.3072    5.6760  -13.9853 C   0  0  0  0  0  0  0  0  0  0  0  0
   -7.0751    6.8144  -13.8662 O   0  0  0  0  0  0  0  0  0  0  0  0
   -7.7351    4.6253  -12.9352 N   0  0  0  0  0  0  0  0  0  0  0  0
   -7.8690    4.7304  -11.5598 C   0  0  0  0  0  0  0  0  0  0  0  0
   -7.4952    5.9577  -10.9874 C   0  0  0  0  0  0  0  0  0  0  0  0
   -7.4561    6.1210   -9.6241 C   0  0  0  0  0  0  0  0  0  0  0  0
   -7.8163    5.0403   -8.8583 C   0  0  0  0  0  0  0  0  0  0  0  0
   -8.2724    3.8325   -9.3889 C   0  0  0  0  0  0  0  0  0  0  0  0
   -8.2924    3.6540  -10.7652 C   0  0  0  0  0  0  0  0  0  0  0  0
   -8.6967    2.9284   -8.2582 C   0  0  0  0  0  0  0  0  0  0  0  0
   -8.2452    3.6776   -7.0491 N   0  0  0  0  0  0  0  0  0  0  0  0
   -8.8656    3.6864   -5.8122 C   0  0  0  0  0  0  0  0  0  0  0  0
  -10.1148    3.1317   -5.5971 C   0  0  0  0  0  0  0  0  0  0  0  0
  -10.7780    3.3910   -4.4083 C   0  0  0  0  0  0  0  0  0  0  0  0
  -10.1896    4.1596   -3.3962 C   0  0  0  0  0  0  0  0  0  0  0  0
   -8.9014    4.6254   -3.5404 C   0  0  0  0  0  0  0  0  0  0  0  0
   -8.2475    4.3752   -4.7363 C   0  0  0  0  0  0  0  0  0  0  0  0
   -7.7553    5.0086   -7.3885 C   0  0  0  0  0  0  0  0  0  0  0  0
   -6.0204    5.4225  -16.0812 C   0  0  0  0  0  0  0  0  0  0  0  0
  1  2  1  0
  2  3  2  0
  3  4  1  0
  4  5  1  0
  4  6  1  0
  6  7  2  0
  7  8  1  0
  8  9  1  0
  9 10  1  0
 10 11  1  0
  8 12  2  0
 12 13  1  0
 13 14  1  0
 14 15  2  0
 14 16  1  0
 16 17  1  0
 17 18  2  0
 18 19  1  0
 19 20  2  0
 20 21  1  0
 21 22  2  0
 21 23  1  0
 23 24  1  0
 24 25  1  0
 25 26  2  0
 26 27  1  0
 27 28  2  0
 28 29  1  0
 29 30  2  0
 24 31  1  0
 13 32  2  0
 32  2  1  0
 32  6  1  0
 11  9  1  0
 22 17  1  0
 30 25  1  0
 31 20  1  0
M  END
>  <name>  (698) 
P125546

>  <alias>  (698) 
None

>  <smina_score_min>  (698) 
-10.07

>  <exports>  (698) 
['/opt/xchem-fragalysis-2/maxwin/BulkDock/OUTPUTS/openbind_xx01zvns2b_c2_elabs_1LOUTNY.sdf', '/opt/xchem-fragalysis-2/maxwin/BulkDock/OUTPUTS/openbind_xx01zvns2b_c2_elabs_1LSYIIV.sdf']

>  <tags>  (698) 
syndirella_placed,openbind_xx01zvns2b_c2_elabs,openbind_xx01zvns2b_c2_elabs_scored_6.2plus,syndirella_product,openbind_xx01zvns2b_c2_elabs_scored,openbind_xx01zvns2b_c2_elabs_scored_top80percent,BulkDock Fragalysis export

>  <subsites>  (698) 
1 - Z4590/B/203/1

>  <smiles>  (698) 
Cc1nn(C)c2nc(C3CC3)cc(C(=O)Nc3ccc4c(c3)CN(c3ccccc3)C4)c12

>  <HIPPO Pose ID>  (698) 
125546

>  <energy_score>  (698) 
-29.720607

>  <inchikey>  (698) 
NQZWFKMMDBRGDJ-UHFFFAOYSA-N

>  <gnina_score_min>  (698) 
6.634

>  <gnina_score>  (698) 
6.323

>  <ref_mols>  (698) 
Z3559a

>  <HIPPO Compound ID>  (698) 
179344

>  <distance_score>  (698) 
0.915885

>  <rmsd(smina/fragmenstein)>  (698) 
0.863

>  <ref_pdb>  (698) 
Z3559a

>  <inspiration_score>  (698) 
None

$$$$
P125549
     RDKit          3D

 32 37  0  0  0  0  0  0  0  0999 V2000
   -9.9700    1.0667   -8.7373 O   0  0  0  0  0  0  0  0  0  0  0  0
   -9.4154    2.0906   -8.4020 C   0  0  0  0  0  0  0  0  0  0  0  0
   -9.3100    2.5790   -7.1165 N   0  0  0  0  0  0  0  0  0  0  0  0
   -8.5972    3.8241   -7.0549 C   0  0  0  0  0  0  0  0  0  0  0  0
   -8.3026    4.1077   -8.4884 C   0  0  0  0  0  0  0  0  0  0  0  0
   -7.6665    5.1889   -9.0620 C   0  0  0  0  0  0  0  0  0  0  0  0
   -7.4852    5.1847  -10.4511 C   0  0  0  0  0  0  0  0  0  0  0  0
   -7.9380    4.1166  -11.2529 C   0  0  0  0  0  0  0  0  0  0  0  0
   -7.7008    4.1229  -12.6306 N   0  0  0  0  0  0  0  0  0  0  0  0
   -7.0245    5.1889  -13.5310 C   0  0  0  0  0  0  0  0  0  0  0  0
   -6.4925    6.1916  -13.2494 O   0  0  0  0  0  0  0  0  0  0  0  0
   -7.0808    4.8588  -14.9807 C   0  0  0  0  0  0  0  0  0  0  0  0
   -8.2279    4.3547  -15.6069 C   0  0  0  0  0  0  0  0  0  0  0  0
   -8.2831    4.2515  -17.0046 C   0  0  0  0  0  0  0  0  0  0  0  0
   -9.5558    3.7781  -17.6731 C   0  0  0  0  0  0  0  0  0  0  0  0
   -9.7831    3.9833  -19.1503 C   0  0  0  0  0  0  0  0  0  0  0  0
   -9.5020    2.6084  -18.6252 C   0  0  0  0  0  0  0  0  0  0  0  0
   -7.2611    4.6362  -17.8066 N   0  0  0  0  0  0  0  0  0  0  0  0
   -6.1794    5.1078  -17.1720 C   0  0  0  0  0  0  0  0  0  0  0  0
   -6.0082    5.2350  -15.8063 C   0  0  0  0  0  0  0  0  0  0  0  0
   -4.7191    5.7969  -15.6736 C   0  0  0  0  0  0  0  0  0  0  0  0
   -4.1338    6.0564  -16.8497 N   0  0  0  0  0  0  0  0  0  0  0  0
   -5.0677    5.6637  -17.7562 N   0  0  0  0  0  0  0  0  0  0  0  0
   -5.0195    6.1935  -19.1110 C   0  0  0  0  0  0  0  0  0  0  0  0
   -4.4431    5.2682  -20.1400 C   0  0  0  0  0  0  0  0  0  0  0  0
   -3.0705    5.2054  -20.3808 C   0  0  0  0  0  0  0  0  0  0  0  0
   -2.6172    4.3970  -21.4136 C   0  0  0  0  0  0  0  0  0  0  0  0
   -3.4230    3.6496  -22.2117 N   0  0  0  0  0  0  0  0  0  0  0  0
   -4.7485    3.7436  -21.9659 C   0  0  0  0  0  0  0  0  0  0  0  0
   -5.2890    4.4972  -20.9391 C   0  0  0  0  0  0  0  0  0  0  0  0
   -8.6022    3.0379  -10.6660 C   0  0  0  0  0  0  0  0  0  0  0  0
   -8.7670    3.0644   -9.2893 C   0  0  0  0  0  0  0  0  0  0  0  0
  1  2  2  0
  2  3  1  0
  3  4  1  0
  4  5  1  0
  5  6  2  0
  6  7  1  0
  7  8  2  0
  8  9  1  0
  9 10  1  0
 10 11  2  0
 10 12  1  0
 12 13  2  0
 13 14  1  0
 14 15  1  0
 15 16  1  0
 16 17  1  0
 14 18  2  0
 18 19  1  0
 19 20  2  0
 20 21  1  0
 21 22  2  0
 22 23  1  0
 23 24  1  0
 24 25  1  0
 25 26  2  0
 26 27  1  0
 27 28  2  0
 28 29  1  0
 29 30  2  0
  8 31  1  0
 31 32  2  0
 32  2  1  0
 32  5  1  0
 20 12  1  0
 30 25  1  0
 17 15  1  0
 23 19  1  0
M  END
>  <name>  (699) 
P125549

>  <alias>  (699) 
None

>  <smina_score_min>  (699) 
-9.857

>  <exports>  (699) 
['/opt/xchem-fragalysis-2/maxwin/BulkDock/OUTPUTS/openbind_xx01zvns2b_c2_elabs_1LOUTNY.sdf', '/opt/xchem-fragalysis-2/maxwin/BulkDock/OUTPUTS/openbind_xx01zvns2b_c2_elabs_1LSYIIV.sdf']

>  <tags>  (699) 
syndirella_placed,openbind_xx01zvns2b_c2_elabs,openbind_xx01zvns2b_c2_elabs_scored_6.2plus,syndirella_product,openbind_xx01zvns2b_c2_elabs_scored,openbind_xx01zvns2b_c2_elabs_scored_top80percent,BulkDock Fragalysis export

>  <subsites>  (699) 
1 - Z4590/B/203/1

>  <smiles>  (699) 
O=C1NCc2ccc(NC(=O)c3cc(C4CC4)nc4c3cnn4Cc3ccncc3)cc21

>  <HIPPO Pose ID>  (699) 
125549

>  <energy_score>  (699) 
-38.704128

>  <inchikey>  (699) 
DZAHHAGMEMVMDW-UHFFFAOYSA-N

>  <gnina_score_min>  (699) 
6.464

>  <gnina_score>  (699) 
6.49

>  <ref_mols>  (699) 
Z3559a

>  <HIPPO Compound ID>  (699) 
179303

>  <distance_score>  (699) 
0.374325

>  <rmsd(smina/fragmenstein)>  (699) 
0.257

>  <ref_pdb>  (699) 
Z3559a

>  <inspiration_score>  (699) 
None

$$$$
P125550
     RDKit          3D

 32 36  0  0  0  0  0  0  0  0999 V2000
  -12.1539    2.3433   -4.9866 C   0  0  0  0  0  0  0  0  0  0  0  0
  -10.7177    2.6811   -5.2029 C   0  0  0  0  0  0  0  0  0  0  0  0
  -10.1475    1.6398   -6.1368 C   0  0  0  0  0  0  0  0  0  0  0  0
   -8.7822    2.0700   -6.5798 C   0  0  0  0  0  0  0  0  0  0  0  0
   -9.0159    3.0077   -7.6528 N   0  0  0  0  0  0  0  0  0  0  0  0
   -8.1892    4.2098   -7.6141 C   0  0  0  0  0  0  0  0  0  0  0  0
   -7.9981    4.5481   -9.0492 C   0  0  0  0  0  0  0  0  0  0  0  0
   -7.4951    5.6995   -9.6122 C   0  0  0  0  0  0  0  0  0  0  0  0
   -7.3246    5.7168  -10.9940 C   0  0  0  0  0  0  0  0  0  0  0  0
   -7.6469    4.5903  -11.7679 C   0  0  0  0  0  0  0  0  0  0  0  0
   -7.4073    4.5546  -13.1263 N   0  0  0  0  0  0  0  0  0  0  0  0
   -6.8388    5.6273  -14.0685 C   0  0  0  0  0  0  0  0  0  0  0  0
   -6.4103    6.6853  -13.8373 O   0  0  0  0  0  0  0  0  0  0  0  0
   -6.9108    5.1549  -15.4577 C   0  0  0  0  0  0  0  0  0  0  0  0
   -8.0977    4.5887  -15.9421 C   0  0  0  0  0  0  0  0  0  0  0  0
   -8.2136    4.2651  -17.2899 C   0  0  0  0  0  0  0  0  0  0  0  0
   -9.5285    3.7408  -17.8101 C   0  0  0  0  0  0  0  0  0  0  0  0
   -9.5436    2.5423  -18.7220 C   0  0  0  0  0  0  0  0  0  0  0  0
   -9.8977    3.8981  -19.2602 C   0  0  0  0  0  0  0  0  0  0  0  0
   -7.2084    4.4772  -18.1666 N   0  0  0  0  0  0  0  0  0  0  0  0
   -6.0964    5.0278  -17.6567 C   0  0  0  0  0  0  0  0  0  0  0  0
   -5.8552    5.3749  -16.3431 C   0  0  0  0  0  0  0  0  0  0  0  0
   -4.5305    5.8883  -16.3450 C   0  0  0  0  0  0  0  0  0  0  0  0
   -3.7237    6.3788  -15.1995 C   0  0  0  0  0  0  0  0  0  0  0  0
   -4.0061    5.9168  -17.5823 N   0  0  0  0  0  0  0  0  0  0  0  0
   -4.9922    5.4176  -18.3619 N   0  0  0  0  0  0  0  0  0  0  0  0
   -4.9339    5.4633  -19.8091 C   0  0  0  0  0  0  0  0  0  0  0  0
   -3.5708    5.7700  -20.4169 C   0  0  0  0  0  0  0  0  0  0  0  0
   -2.7096    4.6355  -20.3760 O   0  0  0  0  0  0  0  0  0  0  0  0
   -8.1974    3.4502  -11.1940 C   0  0  0  0  0  0  0  0  0  0  0  0
   -8.3663    3.4537   -9.8321 C   0  0  0  0  0  0  0  0  0  0  0  0
   -8.8756    2.3607   -8.9676 C   0  0  0  0  0  0  0  0  0  0  0  0
  1  2  1  0
  2  3  1  0
  3  4  1  0
  4  5  1  0
  5  6  1  0
  6  7  1  0
  7  8  2  0
  8  9  1  0
  9 10  2  0
 10 11  1  0
 11 12  1  0
 12 13  2  0
 12 14  1  0
 14 15  2  0
 15 16  1  0
 16 17  1  0
 17 18  1  0
 18 19  1  0
 16 20  2  0
 20 21  1  0
 21 22  2  0
 22 23  1  0
 23 24  1  0
 23 25  2  0
 25 26  1  0
 26 27  1  0
 27 28  1  0
 28 29  1  0
 10 30  1  0
 30 31  2  0
 31 32  1  0
 32  5  1  0
 31  7  1  0
 22 14  1  0
 19 17  1  0
 26 21  1  0
M  END
>  <name>  (700) 
P125550

>  <alias>  (700) 
None

>  <smina_score_min>  (700) 
-7.576

>  <exports>  (700) 
['/opt/xchem-fragalysis-2/maxwin/BulkDock/OUTPUTS/openbind_xx01zvns2b_c2_elabs_1LOUTNY.sdf', '/opt/xchem-fragalysis-2/maxwin/BulkDock/OUTPUTS/openbind_xx01zvns2b_c2_elabs_1LSYIIV.sdf']

>  <tags>  (700) 
syndirella_placed,openbind_xx01zvns2b_c2_elabs,openbind_xx01zvns2b_c2_elabs_scored_6.2plus,syndirella_product,openbind_xx01zvns2b_c2_elabs_scored,openbind_xx01zvns2b_c2_elabs_scored_top80percent,BulkDock Fragalysis export

>  <subsites>  (700) 
1 - Z4590/B/203/1

>  <smiles>  (700) 
CCCCN1Cc2ccc(NC(=O)c3cc(C4CC4)nc4c3c(C)nn4CCO)cc2C1

>  <HIPPO Pose ID>  (700) 
125550

>  <energy_score>  (700) 
-11.73453

>  <inchikey>  (700) 
WRETUNVJGMZIRT-UHFFFAOYSA-N

>  <gnina_score_min>  (700) 
6.28

>  <gnina_score>  (700) 
6.301

>  <ref_mols>  (700) 
Z3559a

>  <HIPPO Compound ID>  (700) 
179261

>  <distance_score>  (700) 
0.792323

>  <rmsd(smina/fragmenstein)>  (700) 
0.314

>  <ref_pdb>  (700) 
Z3559a

>  <inspiration_score>  (700) 
None

$$$$
P125553
     RDKit          3D

 32 37  0  0  0  0  0  0  0  0999 V2000
   -8.1784    4.4482   -6.2013 O   0  0  0  0  0  0  0  0  0  0  0  0
   -8.4753    3.7526   -7.1544 C   0  0  0  0  0  0  0  0  0  0  0  0
   -9.0445    2.4968   -7.1341 N   0  0  0  0  0  0  0  0  0  0  0  0
   -9.0443    1.8772   -8.4431 C   0  0  0  0  0  0  0  0  0  0  0  0
   -8.6034    2.9878   -9.3376 C   0  0  0  0  0  0  0  0  0  0  0  0
   -8.4706    3.0240  -10.7189 C   0  0  0  0  0  0  0  0  0  0  0  0
   -7.9604    4.1888  -11.3086 C   0  0  0  0  0  0  0  0  0  0  0  0
   -7.7919    4.2325  -12.6944 N   0  0  0  0  0  0  0  0  0  0  0  0
   -7.0519    5.2609  -13.5859 C   0  0  0  0  0  0  0  0  0  0  0  0
   -6.5346    6.2712  -13.3073 O   0  0  0  0  0  0  0  0  0  0  0  0
   -7.0858    4.8983  -15.0282 C   0  0  0  0  0  0  0  0  0  0  0  0
   -8.2313    4.3724  -15.6419 C   0  0  0  0  0  0  0  0  0  0  0  0
   -8.2922    4.2433  -17.0355 C   0  0  0  0  0  0  0  0  0  0  0  0
   -9.5674    3.7629  -17.6902 C   0  0  0  0  0  0  0  0  0  0  0  0
   -9.5180    2.5926  -18.6408 C   0  0  0  0  0  0  0  0  0  0  0  0
   -9.8090    3.9663  -19.1648 C   0  0  0  0  0  0  0  0  0  0  0  0
   -7.2743    4.6163  -17.8458 N   0  0  0  0  0  0  0  0  0  0  0  0
   -6.1984    5.1153  -17.2239 C   0  0  0  0  0  0  0  0  0  0  0  0
   -6.0198    5.2708  -15.8622 C   0  0  0  0  0  0  0  0  0  0  0  0
   -4.7385    5.8549  -15.7507 C   0  0  0  0  0  0  0  0  0  0  0  0
   -4.1657    6.1002  -16.9378 N   0  0  0  0  0  0  0  0  0  0  0  0
   -5.1078    5.6884  -17.8276 N   0  0  0  0  0  0  0  0  0  0  0  0
   -5.1021    6.2110  -19.1868 C   0  0  0  0  0  0  0  0  0  0  0  0
   -4.3947    5.3528  -20.1928 C   0  0  0  0  0  0  0  0  0  0  0  0
   -3.0149    5.4531  -20.3855 C   0  0  0  0  0  0  0  0  0  0  0  0
   -2.4300    4.6901  -21.3838 C   0  0  0  0  0  0  0  0  0  0  0  0
   -3.1099    3.8363  -22.1783 N   0  0  0  0  0  0  0  0  0  0  0  0
   -4.4388    3.7446  -21.9649 C   0  0  0  0  0  0  0  0  0  0  0  0
   -5.1167    4.4697  -20.9998 C   0  0  0  0  0  0  0  0  0  0  0  0
   -7.6190    5.2981  -10.5099 C   0  0  0  0  0  0  0  0  0  0  0  0
   -7.7687    5.2593   -9.1197 C   0  0  0  0  0  0  0  0  0  0  0  0
   -8.2558    4.0936   -8.5660 C   0  0  0  0  0  0  0  0  0  0  0  0
  1  2  2  0
  2  3  1  0
  3  4  1  0
  4  5  1  0
  5  6  2  0
  6  7  1  0
  7  8  1  0
  8  9  1  0
  9 10  2  0
  9 11  1  0
 11 12  2  0
 12 13  1  0
 13 14  1  0
 14 15  1  0
 15 16  1  0
 13 17  2  0
 17 18  1  0
 18 19  2  0
 19 20  1  0
 20 21  2  0
 21 22  1  0
 22 23  1  0
 23 24  1  0
 24 25  2  0
 25 26  1  0
 26 27  2  0
 27 28  1  0
 28 29  2  0
  7 30  2  0
 30 31  1  0
 31 32  2  0
 32  2  1  0
 32  5  1  0
 19 11  1  0
 29 24  1  0
 16 14  1  0
 22 18  1  0
M  END
>  <name>  (701) 
P125553

>  <alias>  (701) 
None

>  <smina_score_min>  (701) 
-9.925

>  <exports>  (701) 
['/opt/xchem-fragalysis-2/maxwin/BulkDock/OUTPUTS/openbind_xx01zvns2b_c2_elabs_1LOUTNY.sdf', '/opt/xchem-fragalysis-2/maxwin/BulkDock/OUTPUTS/openbind_xx01zvns2b_c2_elabs_1LSYIIV.sdf']

>  <tags>  (701) 
syndirella_placed,openbind_xx01zvns2b_c2_elabs,openbind_xx01zvns2b_c2_elabs_scored_6.2plus,syndirella_product,openbind_xx01zvns2b_c2_elabs_scored,openbind_xx01zvns2b_c2_elabs_scored_top80percent,BulkDock Fragalysis export

>  <subsites>  (701) 
1 - Z4590/B/203/1

>  <smiles>  (701) 
O=C1NCc2cc(NC(=O)c3cc(C4CC4)nc4c3cnn4Cc3ccncc3)ccc21

>  <HIPPO Pose ID>  (701) 
125553

>  <energy_score>  (701) 
-20.537293

>  <inchikey>  (701) 
NTXGTFCOKBHSJX-UHFFFAOYSA-N

>  <gnina_score_min>  (701) 
6.588

>  <gnina_score>  (701) 
6.515

>  <ref_mols>  (701) 
Z3559a

>  <HIPPO Compound ID>  (701) 
179304

>  <distance_score>  (701) 
0.355932

>  <rmsd(smina/fragmenstein)>  (701) 
0.182

>  <ref_pdb>  (701) 
Z3559a

>  <inspiration_score>  (701) 
None

$$$$
P125554
     RDKit          3D

 33 38  0  0  0  0  0  0  0  0999 V2000
   -9.9623    1.0614   -8.7957 O   0  0  0  0  0  0  0  0  0  0  0  0
   -9.4027    2.0800   -8.4545 C   0  0  0  0  0  0  0  0  0  0  0  0
   -9.2761    2.5509   -7.1650 N   0  0  0  0  0  0  0  0  0  0  0  0
   -8.5911    3.8103   -7.0987 C   0  0  0  0  0  0  0  0  0  0  0  0
   -8.3320    4.1164   -8.5339 C   0  0  0  0  0  0  0  0  0  0  0  0
   -7.7500    5.2246   -9.1085 C   0  0  0  0  0  0  0  0  0  0  0  0
   -7.6211    5.2557  -10.5019 C   0  0  0  0  0  0  0  0  0  0  0  0
   -7.0309    6.3435  -11.0105 F   0  0  0  0  0  0  0  0  0  0  0  0
   -8.0606    4.1942  -11.3282 C   0  0  0  0  0  0  0  0  0  0  0  0
   -7.9158    4.2019  -12.7279 N   0  0  0  0  0  0  0  0  0  0  0  0
   -7.3530    5.2921  -13.6760 C   0  0  0  0  0  0  0  0  0  0  0  0
   -6.9942    6.3815  -13.4494 O   0  0  0  0  0  0  0  0  0  0  0  0
   -7.2592    4.8615  -15.0947 C   0  0  0  0  0  0  0  0  0  0  0  0
   -8.3015    4.2235  -15.7836 C   0  0  0  0  0  0  0  0  0  0  0  0
   -8.2061    4.0365  -17.1695 C   0  0  0  0  0  0  0  0  0  0  0  0
   -9.2845    3.3389  -17.9623 C   0  0  0  0  0  0  0  0  0  0  0  0
   -9.6362    3.9557  -19.3010 C   0  0  0  0  0  0  0  0  0  0  0  0
  -10.6451    3.9348  -18.2070 C   0  0  0  0  0  0  0  0  0  0  0  0
   -7.1577    4.4824  -17.9012 N   0  0  0  0  0  0  0  0  0  0  0  0
   -6.1872    5.0846  -17.2071 C   0  0  0  0  0  0  0  0  0  0  0  0
   -6.1458    5.2846  -15.8426 C   0  0  0  0  0  0  0  0  0  0  0  0
   -4.9236    5.9631  -15.6355 C   0  0  0  0  0  0  0  0  0  0  0  0
   -4.2722    6.2346  -16.7750 N   0  0  0  0  0  0  0  0  0  0  0  0
   -5.0959    5.7291  -17.7311 N   0  0  0  0  0  0  0  0  0  0  0  0
   -5.0256    6.2424  -19.0917 C   0  0  0  0  0  0  0  0  0  0  0  0
   -4.2613    5.3918  -20.0601 C   0  0  0  0  0  0  0  0  0  0  0  0
   -2.8655    5.3867  -20.0728 C   0  0  0  0  0  0  0  0  0  0  0  0
   -2.2179    4.6596  -21.0583 C   0  0  0  0  0  0  0  0  0  0  0  0
   -2.8566    3.9443  -22.0135 N   0  0  0  0  0  0  0  0  0  0  0  0
   -4.2038    3.9446  -21.9685 C   0  0  0  0  0  0  0  0  0  0  0  0
   -4.9392    4.6372  -21.0228 C   0  0  0  0  0  0  0  0  0  0  0  0
   -8.6526    3.0761  -10.7254 C   0  0  0  0  0  0  0  0  0  0  0  0
   -8.7829    3.0737   -9.3413 C   0  0  0  0  0  0  0  0  0  0  0  0
  1  2  2  0
  2  3  1  0
  3  4  1  0
  4  5  1  0
  5  6  2  0
  6  7  1  0
  7  8  1  0
  7  9  2  0
  9 10  1  0
 10 11  1  0
 11 12  2  0
 11 13  1  0
 13 14  2  0
 14 15  1  0
 15 16  1  0
 16 17  1  0
 17 18  1  0
 15 19  2  0
 19 20  1  0
 20 21  2  0
 21 22  1  0
 22 23  2  0
 23 24  1  0
 24 25  1  0
 25 26  1  0
 26 27  2  0
 27 28  1  0
 28 29  2  0
 29 30  1  0
 30 31  2  0
  9 32  1  0
 32 33  2  0
 33  2  1  0
 33  5  1  0
 21 13  1  0
 31 26  1  0
 18 16  1  0
 24 20  1  0
M  END
>  <name>  (702) 
P125554

>  <alias>  (702) 
None

>  <smina_score_min>  (702) 
-9.766

>  <exports>  (702) 
['/opt/xchem-fragalysis-2/maxwin/BulkDock/OUTPUTS/openbind_xx01zvns2b_c2_elabs_1LOUTNY.sdf', '/opt/xchem-fragalysis-2/maxwin/BulkDock/OUTPUTS/openbind_xx01zvns2b_c2_elabs_1LSYIIV.sdf']

>  <tags>  (702) 
syndirella_placed,openbind_xx01zvns2b_c2_elabs,openbind_xx01zvns2b_c2_elabs_scored_6.2plus,syndirella_product,openbind_xx01zvns2b_c2_elabs_scored,openbind_xx01zvns2b_c2_elabs_scored_top80percent,BulkDock Fragalysis export

>  <subsites>  (702) 
1 - Z4590/B/203/1

>  <smiles>  (702) 
O=C1NCc2cc(F)c(NC(=O)c3cc(C4CC4)nc4c3cnn4Cc3ccncc3)cc21

>  <HIPPO Pose ID>  (702) 
125554

>  <energy_score>  (702) 
-46.39687

>  <inchikey>  (702) 
QQOFSTFCNJEXKS-UHFFFAOYSA-N

>  <gnina_score_min>  (702) 
6.71

>  <gnina_score>  (702) 
6.763

>  <ref_mols>  (702) 
Z3559a

>  <HIPPO Compound ID>  (702) 
179974

>  <distance_score>  (702) 
0.547274

>  <rmsd(smina/fragmenstein)>  (702) 
0.425

>  <ref_pdb>  (702) 
Z3559a

>  <inspiration_score>  (702) 
None

$$$$
P125555
     RDKit          3D

 33 38  0  0  0  0  0  0  0  0999 V2000
  -10.0106    2.0908   -6.0966 C   0  0  0  0  0  0  0  0  0  0  0  0
   -9.2618    2.6590   -7.1864 N   0  0  0  0  0  0  0  0  0  0  0  0
   -9.1855    2.0054   -8.4820 C   0  0  0  0  0  0  0  0  0  0  0  0
   -8.6249    3.0799   -9.3516 C   0  0  0  0  0  0  0  0  0  0  0  0
   -8.4016    3.0881  -10.7190 C   0  0  0  0  0  0  0  0  0  0  0  0
   -7.9037    4.2613  -11.2988 C   0  0  0  0  0  0  0  0  0  0  0  0
   -7.6827    4.2915  -12.6731 N   0  0  0  0  0  0  0  0  0  0  0  0
   -7.1130    5.4102  -13.5734 C   0  0  0  0  0  0  0  0  0  0  0  0
   -6.6682    6.4530  -13.2948 O   0  0  0  0  0  0  0  0  0  0  0  0
   -7.1277    5.0302  -15.0019 C   0  0  0  0  0  0  0  0  0  0  0  0
   -8.2524    4.4821  -15.6268 C   0  0  0  0  0  0  0  0  0  0  0  0
   -8.2505    4.2697  -17.0113 C   0  0  0  0  0  0  0  0  0  0  0  0
   -9.5137    3.7788  -17.6882 C   0  0  0  0  0  0  0  0  0  0  0  0
   -9.4546    2.6050  -18.6335 C   0  0  0  0  0  0  0  0  0  0  0  0
   -9.7257    3.9787  -19.1677 C   0  0  0  0  0  0  0  0  0  0  0  0
   -7.1776    4.5555  -17.7914 N   0  0  0  0  0  0  0  0  0  0  0  0
   -6.1241    5.0846  -17.1507 C   0  0  0  0  0  0  0  0  0  0  0  0
   -6.0199    5.3378  -15.7966 C   0  0  0  0  0  0  0  0  0  0  0  0
   -4.7276    5.8768  -15.6335 C   0  0  0  0  0  0  0  0  0  0  0  0
   -4.0463    5.9469  -16.7820 N   0  0  0  0  0  0  0  0  0  0  0  0
   -4.9435    5.5057  -17.7046 N   0  0  0  0  0  0  0  0  0  0  0  0
   -4.5743    5.4369  -19.1116 C   0  0  0  0  0  0  0  0  0  0  0  0
   -4.6772    6.7517  -19.8510 C   0  0  0  0  0  0  0  0  0  0  0  0
   -4.3026    7.9782  -19.2924 C   0  0  0  0  0  0  0  0  0  0  0  0
   -4.3885    9.1256  -20.0680 C   0  0  0  0  0  0  0  0  0  0  0  0
   -4.8074    9.1394  -21.3509 N   0  0  0  0  0  0  0  0  0  0  0  0
   -5.1190    7.9420  -21.8910 C   0  0  0  0  0  0  0  0  0  0  0  0
   -5.0720    6.7449  -21.1934 C   0  0  0  0  0  0  0  0  0  0  0  0
   -7.6349    5.3946  -10.5063 C   0  0  0  0  0  0  0  0  0  0  0  0
   -7.8659    5.3795   -9.1297 C   0  0  0  0  0  0  0  0  0  0  0  0
   -8.3573    4.2123   -8.5850 C   0  0  0  0  0  0  0  0  0  0  0  0
   -8.7784    3.9504   -7.2040 C   0  0  0  0  0  0  0  0  0  0  0  0
   -8.7509    4.7730   -6.3068 O   0  0  0  0  0  0  0  0  0  0  0  0
  1  2  1  0
  2  3  1  0
  3  4  1  0
  4  5  2  0
  5  6  1  0
  6  7  1  0
  7  8  1  0
  8  9  2  0
  8 10  1  0
 10 11  2  0
 11 12  1  0
 12 13  1  0
 13 14  1  0
 14 15  1  0
 12 16  2  0
 16 17  1  0
 17 18  2  0
 18 19  1  0
 19 20  2  0
 20 21  1  0
 21 22  1  0
 22 23  1  0
 23 24  2  0
 24 25  1  0
 25 26  2  0
 26 27  1  0
 27 28  2  0
  6 29  2  0
 29 30  1  0
 30 31  2  0
 31 32  1  0
 32 33  2  0
 32  2  1  0
 31  4  1  0
 18 10  1  0
 28 23  1  0
 15 13  1  0
 21 17  1  0
M  END
>  <name>  (703) 
P125555

>  <alias>  (703) 
None

>  <smina_score_min>  (703) 
-9.269

>  <exports>  (703) 
['/opt/xchem-fragalysis-2/maxwin/BulkDock/OUTPUTS/openbind_xx01zvns2b_c2_elabs_1LOUTNY.sdf', '/opt/xchem-fragalysis-2/maxwin/BulkDock/OUTPUTS/openbind_xx01zvns2b_c2_elabs_1LSYIIV.sdf']

>  <tags>  (703) 
syndirella_placed,openbind_xx01zvns2b_c2_elabs,openbind_xx01zvns2b_c2_elabs_scored_6.2plus,syndirella_product,openbind_xx01zvns2b_c2_elabs_scored,openbind_xx01zvns2b_c2_elabs_scored_top80percent,BulkDock Fragalysis export

>  <subsites>  (703) 
1 - Z4590/B/203/1

>  <smiles>  (703) 
CN1Cc2cc(NC(=O)c3cc(C4CC4)nc4c3cnn4Cc3ccncc3)ccc2C1=O

>  <HIPPO Pose ID>  (703) 
125555

>  <energy_score>  (703) 
-39.776765

>  <inchikey>  (703) 
HGTONRMEFPHFBL-UHFFFAOYSA-N

>  <gnina_score_min>  (703) 
6.396

>  <gnina_score>  (703) 
6.428

>  <ref_mols>  (703) 
Z3559a

>  <HIPPO Compound ID>  (703) 
179973

>  <distance_score>  (703) 
0.376098

>  <rmsd(smina/fragmenstein)>  (703) 
0.419

>  <ref_pdb>  (703) 
Z3559a

>  <inspiration_score>  (703) 
None

$$$$
P125556
     RDKit          3D

 33 38  0  0  0  0  0  0  0  0999 V2000
  -10.0005    2.0983   -6.0896 C   0  0  0  0  0  0  0  0  0  0  0  0
   -9.2485    2.6618   -7.1797 N   0  0  0  0  0  0  0  0  0  0  0  0
   -9.1934    2.0166   -8.4802 C   0  0  0  0  0  0  0  0  0  0  0  0
   -8.6353    3.0929   -9.3491 C   0  0  0  0  0  0  0  0  0  0  0  0
   -8.4497    3.1169  -10.7218 C   0  0  0  0  0  0  0  0  0  0  0  0
   -7.9644    4.2959  -11.3009 C   0  0  0  0  0  0  0  0  0  0  0  0
   -7.8171    4.3541  -12.6846 N   0  0  0  0  0  0  0  0  0  0  0  0
   -7.1842    5.4412  -13.5815 C   0  0  0  0  0  0  0  0  0  0  0  0
   -6.7562    6.4925  -13.3087 O   0  0  0  0  0  0  0  0  0  0  0  0
   -7.1672    5.0427  -15.0046 C   0  0  0  0  0  0  0  0  0  0  0  0
   -8.2852    4.4985  -15.6383 C   0  0  0  0  0  0  0  0  0  0  0  0
   -8.2590    4.2657  -17.0147 C   0  0  0  0  0  0  0  0  0  0  0  0
   -9.5159    3.7771  -17.7042 C   0  0  0  0  0  0  0  0  0  0  0  0
   -9.4478    2.6038  -18.6489 C   0  0  0  0  0  0  0  0  0  0  0  0
   -9.7177    3.9774  -19.1843 C   0  0  0  0  0  0  0  0  0  0  0  0
   -7.1675    4.5244  -17.7751 N   0  0  0  0  0  0  0  0  0  0  0  0
   -6.1039    5.0531  -17.1359 C   0  0  0  0  0  0  0  0  0  0  0  0
   -6.0382    5.3263  -15.7798 C   0  0  0  0  0  0  0  0  0  0  0  0
   -4.7527    5.8527  -15.5799 C   0  0  0  0  0  0  0  0  0  0  0  0
   -4.0271    5.8861  -16.6962 N   0  0  0  0  0  0  0  0  0  0  0  0
   -4.8672    5.4173  -17.6689 N   0  0  0  0  0  0  0  0  0  0  0  0
   -4.4021    5.3419  -19.0166 C   0  0  0  0  0  0  0  0  0  0  0  0
   -3.0307    5.5266  -19.2803 C   0  0  0  0  0  0  0  0  0  0  0  0
   -2.5338    5.3951  -20.5801 C   0  0  0  0  0  0  0  0  0  0  0  0
   -3.4071    5.1082  -21.6198 C   0  0  0  0  0  0  0  0  0  0  0  0
   -2.9359    4.9756  -22.8664 F   0  0  0  0  0  0  0  0  0  0  0  0
   -4.7665    4.9501  -21.3830 C   0  0  0  0  0  0  0  0  0  0  0  0
   -5.2667    5.0597  -20.0810 C   0  0  0  0  0  0  0  0  0  0  0  0
   -7.6594    5.4152  -10.5021 C   0  0  0  0  0  0  0  0  0  0  0  0
   -7.8496    5.3829   -9.1195 C   0  0  0  0  0  0  0  0  0  0  0  0
   -8.3388    4.2138   -8.5763 C   0  0  0  0  0  0  0  0  0  0  0  0
   -8.7431    3.9448   -7.1915 C   0  0  0  0  0  0  0  0  0  0  0  0
   -8.6902    4.7588   -6.2877 O   0  0  0  0  0  0  0  0  0  0  0  0
  1  2  1  0
  2  3  1  0
  3  4  1  0
  4  5  2  0
  5  6  1  0
  6  7  1  0
  7  8  1  0
  8  9  2  0
  8 10  1  0
 10 11  2  0
 11 12  1  0
 12 13  1  0
 13 14  1  0
 14 15  1  0
 12 16  2  0
 16 17  1  0
 17 18  2  0
 18 19  1  0
 19 20  2  0
 20 21  1  0
 21 22  1  0
 22 23  2  0
 23 24  1  0
 24 25  2  0
 25 26  1  0
 25 27  1  0
 27 28  2  0
  6 29  2  0
 29 30  1  0
 30 31  2  0
 31 32  1  0
 32 33  2  0
 32  2  1  0
 31  4  1  0
 18 10  1  0
 28 22  1  0
 15 13  1  0
 21 17  1  0
M  END
>  <name>  (704) 
P125556

>  <alias>  (704) 
None

>  <smina_score_min>  (704) 
-10.254

>  <exports>  (704) 
['/opt/xchem-fragalysis-2/maxwin/BulkDock/OUTPUTS/openbind_xx01zvns2b_c2_elabs_1LOUTNY.sdf', '/opt/xchem-fragalysis-2/maxwin/BulkDock/OUTPUTS/openbind_xx01zvns2b_c2_elabs_1LSYIIV.sdf']

>  <tags>  (704) 
syndirella_placed,openbind_xx01zvns2b_c2_elabs,openbind_xx01zvns2b_c2_elabs_scored_6.2plus,syndirella_product,openbind_xx01zvns2b_c2_elabs_scored,openbind_xx01zvns2b_c2_elabs_scored_top80percent,BulkDock Fragalysis export

>  <subsites>  (704) 
1 - Z4590/B/203/1

>  <smiles>  (704) 
CN1Cc2cc(NC(=O)c3cc(C4CC4)nc4c3cnn4-c3ccc(F)cc3)ccc2C1=O

>  <HIPPO Pose ID>  (704) 
125556

>  <energy_score>  (704) 
-34.03104

>  <inchikey>  (704) 
GXBOMPXMMXEGBF-UHFFFAOYSA-N

>  <gnina_score_min>  (704) 
6.507

>  <gnina_score>  (704) 
6.473

>  <ref_mols>  (704) 
Z3559a

>  <HIPPO Compound ID>  (704) 
179591

>  <distance_score>  (704) 
0.382755

>  <rmsd(smina/fragmenstein)>  (704) 
0.455

>  <ref_pdb>  (704) 
Z3559a

>  <inspiration_score>  (704) 
None

$$$$
P125557
     RDKit          3D

 33 38  0  0  0  0  0  0  0  0999 V2000
   -9.9564    1.0356   -8.7355 O   0  0  0  0  0  0  0  0  0  0  0  0
   -9.4090    2.0483   -8.3588 C   0  0  0  0  0  0  0  0  0  0  0  0
   -9.2925    2.4828   -7.0560 N   0  0  0  0  0  0  0  0  0  0  0  0
   -8.6304    3.7518   -6.9502 C   0  0  0  0  0  0  0  0  0  0  0  0
   -8.3705    4.1038   -8.3747 C   0  0  0  0  0  0  0  0  0  0  0  0
   -7.8167    5.2436   -8.9153 C   0  0  0  0  0  0  0  0  0  0  0  0
   -7.6935    5.3211  -10.3064 C   0  0  0  0  0  0  0  0  0  0  0  0
   -7.1847    6.4605  -10.7894 F   0  0  0  0  0  0  0  0  0  0  0  0
   -8.0986    4.2692  -11.1602 C   0  0  0  0  0  0  0  0  0  0  0  0
   -7.9612    4.3228  -12.5576 N   0  0  0  0  0  0  0  0  0  0  0  0
   -7.2332    5.3529  -13.4589 C   0  0  0  0  0  0  0  0  0  0  0  0
   -6.7014    6.3567  -13.1847 O   0  0  0  0  0  0  0  0  0  0  0  0
   -7.2265    4.9752  -14.8939 C   0  0  0  0  0  0  0  0  0  0  0  0
   -8.3421    4.4548  -15.5527 C   0  0  0  0  0  0  0  0  0  0  0  0
   -8.3071    4.2558  -16.9371 C   0  0  0  0  0  0  0  0  0  0  0  0
   -9.5550    3.7863  -17.6569 C   0  0  0  0  0  0  0  0  0  0  0  0
   -9.7286    4.0070  -19.1389 C   0  0  0  0  0  0  0  0  0  0  0  0
   -9.4734    2.6257  -18.6178 C   0  0  0  0  0  0  0  0  0  0  0  0
   -7.2114    4.5289  -17.6850 N   0  0  0  0  0  0  0  0  0  0  0  0
   -6.1500    5.0340  -17.0273 C   0  0  0  0  0  0  0  0  0  0  0  0
   -6.0913    5.2718  -15.6641 C   0  0  0  0  0  0  0  0  0  0  0  0
   -4.8024    5.7892  -15.4502 C   0  0  0  0  0  0  0  0  0  0  0  0
   -4.0726    5.8498  -16.5632 N   0  0  0  0  0  0  0  0  0  0  0  0
   -4.9094    5.4027  -17.5480 N   0  0  0  0  0  0  0  0  0  0  0  0
   -4.4382    5.3516  -18.8953 C   0  0  0  0  0  0  0  0  0  0  0  0
   -3.0644    5.5357  -19.1481 C   0  0  0  0  0  0  0  0  0  0  0  0
   -2.5607    5.4283  -20.4475 C   0  0  0  0  0  0  0  0  0  0  0  0
   -3.4294    5.1659  -21.4974 C   0  0  0  0  0  0  0  0  0  0  0  0
   -2.9522    5.0568  -22.7440 F   0  0  0  0  0  0  0  0  0  0  0  0
   -4.7907    5.0085  -21.2710 C   0  0  0  0  0  0  0  0  0  0  0  0
   -5.2982    5.0944  -19.9699 C   0  0  0  0  0  0  0  0  0  0  0  0
   -8.6696    3.1214  -10.5944 C   0  0  0  0  0  0  0  0  0  0  0  0
   -8.8002    3.0760   -9.2126 C   0  0  0  0  0  0  0  0  0  0  0  0
  1  2  2  0
  2  3  1  0
  3  4  1  0
  4  5  1  0
  5  6  2  0
  6  7  1  0
  7  8  1  0
  7  9  2  0
  9 10  1  0
 10 11  1  0
 11 12  2  0
 11 13  1  0
 13 14  2  0
 14 15  1  0
 15 16  1  0
 16 17  1  0
 17 18  1  0
 15 19  2  0
 19 20  1  0
 20 21  2  0
 21 22  1  0
 22 23  2  0
 23 24  1  0
 24 25  1  0
 25 26  2  0
 26 27  1  0
 27 28  2  0
 28 29  1  0
 28 30  1  0
 30 31  2  0
  9 32  1  0
 32 33  2  0
 33  2  1  0
 33  5  1  0
 21 13  1  0
 31 25  1  0
 18 16  1  0
 24 20  1  0
M  END
>  <name>  (705) 
P125557

>  <alias>  (705) 
None

>  <smina_score_min>  (705) 
-10.146

>  <exports>  (705) 
['/opt/xchem-fragalysis-2/maxwin/BulkDock/OUTPUTS/openbind_xx01zvns2b_c2_elabs_1LOUTNY.sdf', '/opt/xchem-fragalysis-2/maxwin/BulkDock/OUTPUTS/openbind_xx01zvns2b_c2_elabs_1LSYIIV.sdf']

>  <tags>  (705) 
syndirella_placed,openbind_xx01zvns2b_c2_elabs,openbind_xx01zvns2b_c2_elabs_scored_6.2plus,syndirella_product,openbind_xx01zvns2b_c2_elabs_scored,openbind_xx01zvns2b_c2_elabs_scored_top80percent,BulkDock Fragalysis export

>  <subsites>  (705) 
1 - Z4590/B/203/1

>  <smiles>  (705) 
O=C1NCc2cc(F)c(NC(=O)c3cc(C4CC4)nc4c3cnn4-c3ccc(F)cc3)cc21

>  <HIPPO Pose ID>  (705) 
125557

>  <energy_score>  (705) 
-21.186442

>  <inchikey>  (705) 
FWCFACZECKHIFW-UHFFFAOYSA-N

>  <gnina_score_min>  (705) 
6.485

>  <gnina_score>  (705) 
6.591

>  <ref_mols>  (705) 
Z3559a

>  <HIPPO Compound ID>  (705) 
179590

>  <distance_score>  (705) 
0.349076

>  <rmsd(smina/fragmenstein)>  (705) 
1.031

>  <ref_pdb>  (705) 
Z3559a

>  <inspiration_score>  (705) 
None

$$$$
P125558
     RDKit          3D

 33 38  0  0  0  0  0  0  0  0999 V2000
   -7.9695    4.2546   -6.0729 O   0  0  0  0  0  0  0  0  0  0  0  0
   -8.3882    3.6122   -7.0187 C   0  0  0  0  0  0  0  0  0  0  0  0
   -9.0455    2.4227   -7.0140 N   0  0  0  0  0  0  0  0  0  0  0  0
   -9.3253    1.9859   -8.2742 C   0  0  0  0  0  0  0  0  0  0  0  0
   -9.9687    1.0092   -8.5945 O   0  0  0  0  0  0  0  0  0  0  0  0
   -8.7685    2.9747   -9.2005 C   0  0  0  0  0  0  0  0  0  0  0  0
   -8.7324    3.0094  -10.5879 C   0  0  0  0  0  0  0  0  0  0  0  0
   -8.1652    4.1389  -11.1900 C   0  0  0  0  0  0  0  0  0  0  0  0
   -8.0595    4.2157  -12.5828 N   0  0  0  0  0  0  0  0  0  0  0  0
   -7.5076    5.3454  -13.4897 C   0  0  0  0  0  0  0  0  0  0  0  0
   -7.1272    6.4173  -13.2182 O   0  0  0  0  0  0  0  0  0  0  0  0
   -7.3948    4.9533  -14.9170 C   0  0  0  0  0  0  0  0  0  0  0  0
   -8.4121    4.3226  -15.6437 C   0  0  0  0  0  0  0  0  0  0  0  0
   -8.2393    4.0753  -17.0127 C   0  0  0  0  0  0  0  0  0  0  0  0
   -9.2856    3.3478  -17.8200 C   0  0  0  0  0  0  0  0  0  0  0  0
  -10.5903    3.9781  -18.2410 C   0  0  0  0  0  0  0  0  0  0  0  0
   -9.4989    3.8084  -19.2420 C   0  0  0  0  0  0  0  0  0  0  0  0
   -7.1259    4.4417  -17.6946 N   0  0  0  0  0  0  0  0  0  0  0  0
   -6.1857    5.0537  -16.9658 C   0  0  0  0  0  0  0  0  0  0  0  0
   -6.2308    5.3215  -15.6122 C   0  0  0  0  0  0  0  0  0  0  0  0
   -4.9879    5.9360  -15.3418 C   0  0  0  0  0  0  0  0  0  0  0  0
   -4.2093    6.0442  -16.4256 N   0  0  0  0  0  0  0  0  0  0  0  0
   -4.9905    5.5436  -17.4177 N   0  0  0  0  0  0  0  0  0  0  0  0
   -4.4984    5.4861  -18.7867 C   0  0  0  0  0  0  0  0  0  0  0  0
   -4.6320    6.7867  -19.5443 C   0  0  0  0  0  0  0  0  0  0  0  0
   -5.0265    6.7617  -20.8863 C   0  0  0  0  0  0  0  0  0  0  0  0
   -5.0918    7.9528  -21.5922 C   0  0  0  0  0  0  0  0  0  0  0  0
   -4.8090    9.1590  -21.0571 N   0  0  0  0  0  0  0  0  0  0  0  0
   -4.3978    9.1652  -19.7719 C   0  0  0  0  0  0  0  0  0  0  0  0
   -4.2882    8.0248  -18.9904 C   0  0  0  0  0  0  0  0  0  0  0  0
   -7.6655    5.1908  -10.3884 C   0  0  0  0  0  0  0  0  0  0  0  0
   -7.6932    5.1231   -8.9901 C   0  0  0  0  0  0  0  0  0  0  0  0
   -8.2430    3.9933   -8.4254 C   0  0  0  0  0  0  0  0  0  0  0  0
  1  2  2  0
  2  3  1  0
  3  4  1  0
  4  5  2  0
  4  6  1  0
  6  7  2  0
  7  8  1  0
  8  9  1  0
  9 10  1  0
 10 11  2  0
 10 12  1  0
 12 13  2  0
 13 14  1  0
 14 15  1  0
 15 16  1  0
 16 17  1  0
 14 18  2  0
 18 19  1  0
 19 20  2  0
 20 21  1  0
 21 22  2  0
 22 23  1  0
 23 24  1  0
 24 25  1  0
 25 26  2  0
 26 27  1  0
 27 28  2  0
 28 29  1  0
 29 30  2  0
  8 31  2  0
 31 32  1  0
 32 33  2  0
 33  2  1  0
 33  6  1  0
 20 12  1  0
 30 25  1  0
 17 15  1  0
 23 19  1  0
M  END
>  <name>  (706) 
P125558

>  <alias>  (706) 
None

>  <smina_score_min>  (706) 
-9.781

>  <exports>  (706) 
['/opt/xchem-fragalysis-2/maxwin/BulkDock/OUTPUTS/openbind_xx01zvns2b_c2_elabs_1LOUTNY.sdf', '/opt/xchem-fragalysis-2/maxwin/BulkDock/OUTPUTS/openbind_xx01zvns2b_c2_elabs_1LSYIIV.sdf']

>  <tags>  (706) 
syndirella_placed,openbind_xx01zvns2b_c2_elabs,openbind_xx01zvns2b_c2_elabs_scored_6.2plus,syndirella_product,openbind_xx01zvns2b_c2_elabs_scored,openbind_xx01zvns2b_c2_elabs_scored_top80percent,BulkDock Fragalysis export

>  <subsites>  (706) 
1 - Z4590/B/203/1

>  <smiles>  (706) 
O=C1NC(=O)c2cc(NC(=O)c3cc(C4CC4)nc4c3cnn4Cc3ccncc3)ccc21

>  <HIPPO Pose ID>  (706) 
125558

>  <energy_score>  (706) 
-46.649367

>  <inchikey>  (706) 
MCPIUADJUXKBSA-UHFFFAOYSA-N

>  <gnina_score_min>  (706) 
6.418

>  <gnina_score>  (706) 
6.472

>  <ref_mols>  (706) 
Z3559a

>  <HIPPO Compound ID>  (706) 
179972

>  <distance_score>  (706) 
0.515155

>  <rmsd(smina/fragmenstein)>  (706) 
0.911

>  <ref_pdb>  (706) 
Z3559a

>  <inspiration_score>  (706) 
None

$$$$
P125559
     RDKit          3D

 33 38  0  0  0  0  0  0  0  0999 V2000
   -7.9502    4.2148   -6.0159 O   0  0  0  0  0  0  0  0  0  0  0  0
   -8.3782    3.5910   -6.9702 C   0  0  0  0  0  0  0  0  0  0  0  0
   -9.0553    2.4127   -6.9818 N   0  0  0  0  0  0  0  0  0  0  0  0
   -9.3282    1.9898   -8.2486 C   0  0  0  0  0  0  0  0  0  0  0  0
   -9.9731    1.0189   -8.5833 O   0  0  0  0  0  0  0  0  0  0  0  0
   -8.7545    2.9820   -9.1609 C   0  0  0  0  0  0  0  0  0  0  0  0
   -8.7050    3.0297  -10.5471 C   0  0  0  0  0  0  0  0  0  0  0  0
   -8.1024    4.1505  -11.1313 C   0  0  0  0  0  0  0  0  0  0  0  0
   -7.9840    4.2402  -12.5220 N   0  0  0  0  0  0  0  0  0  0  0  0
   -7.2529    5.2845  -13.4052 C   0  0  0  0  0  0  0  0  0  0  0  0
   -6.7021    6.2731  -13.1107 O   0  0  0  0  0  0  0  0  0  0  0  0
   -7.2513    4.9370  -14.8510 C   0  0  0  0  0  0  0  0  0  0  0  0
   -8.3657    4.4219  -15.5178 C   0  0  0  0  0  0  0  0  0  0  0  0
   -8.3346    4.2497  -16.9062 C   0  0  0  0  0  0  0  0  0  0  0  0
   -9.5772    3.7856  -17.6367 C   0  0  0  0  0  0  0  0  0  0  0  0
   -9.4867    2.6337  -18.6076 C   0  0  0  0  0  0  0  0  0  0  0  0
   -9.7443    4.0186  -19.1179 C   0  0  0  0  0  0  0  0  0  0  0  0
   -7.2449    4.5475  -17.6495 N   0  0  0  0  0  0  0  0  0  0  0  0
   -6.1839    5.0433  -16.9894 C   0  0  0  0  0  0  0  0  0  0  0  0
   -6.1219    5.2592  -15.6229 C   0  0  0  0  0  0  0  0  0  0  0  0
   -4.8398    5.7951  -15.4113 C   0  0  0  0  0  0  0  0  0  0  0  0
   -4.1249    5.9053  -16.5308 N   0  0  0  0  0  0  0  0  0  0  0  0
   -4.9599    5.4512  -17.5172 N   0  0  0  0  0  0  0  0  0  0  0  0
   -4.5045    5.4574  -18.8728 C   0  0  0  0  0  0  0  0  0  0  0  0
   -5.3232    5.0521  -19.9343 C   0  0  0  0  0  0  0  0  0  0  0  0
   -4.8302    5.0510  -21.2442 C   0  0  0  0  0  0  0  0  0  0  0  0
   -3.5284    5.4597  -21.4960 C   0  0  0  0  0  0  0  0  0  0  0  0
   -3.0632    5.4583  -22.7518 F   0  0  0  0  0  0  0  0  0  0  0  0
   -2.7025    5.8742  -20.4606 C   0  0  0  0  0  0  0  0  0  0  0  0
   -3.1874    5.8746  -19.1501 C   0  0  0  0  0  0  0  0  0  0  0  0
   -7.5930    5.1864  -10.3160 C   0  0  0  0  0  0  0  0  0  0  0  0
   -7.6410    5.1085   -8.9195 C   0  0  0  0  0  0  0  0  0  0  0  0
   -8.2185    3.9842   -8.3717 C   0  0  0  0  0  0  0  0  0  0  0  0
  1  2  2  0
  2  3  1  0
  3  4  1  0
  4  5  2  0
  4  6  1  0
  6  7  2  0
  7  8  1  0
  8  9  1  0
  9 10  1  0
 10 11  2  0
 10 12  1  0
 12 13  2  0
 13 14  1  0
 14 15  1  0
 15 16  1  0
 16 17  1  0
 14 18  2  0
 18 19  1  0
 19 20  2  0
 20 21  1  0
 21 22  2  0
 22 23  1  0
 23 24  1  0
 24 25  2  0
 25 26  1  0
 26 27  2  0
 27 28  1  0
 27 29  1  0
 29 30  2  0
  8 31  2  0
 31 32  1  0
 32 33  2  0
 33  2  1  0
 33  6  1  0
 20 12  1  0
 30 24  1  0
 17 15  1  0
 23 19  1  0
M  END
>  <name>  (707) 
P125559

>  <alias>  (707) 
None

>  <smina_score_min>  (707) 
-10.16

>  <exports>  (707) 
['/opt/xchem-fragalysis-2/maxwin/BulkDock/OUTPUTS/openbind_xx01zvns2b_c2_elabs_1LOUTNY.sdf', '/opt/xchem-fragalysis-2/maxwin/BulkDock/OUTPUTS/openbind_xx01zvns2b_c2_elabs_1LSYIIV.sdf']

>  <tags>  (707) 
syndirella_placed,openbind_xx01zvns2b_c2_elabs,openbind_xx01zvns2b_c2_elabs_scored_6.2plus,syndirella_product,openbind_xx01zvns2b_c2_elabs_scored,openbind_xx01zvns2b_c2_elabs_scored_top80percent,BulkDock Fragalysis export

>  <subsites>  (707) 
1 - Z4590/B/203/1

>  <smiles>  (707) 
O=C1NC(=O)c2cc(NC(=O)c3cc(C4CC4)nc4c3cnn4-c3ccc(F)cc3)ccc21

>  <HIPPO Pose ID>  (707) 
125559

>  <energy_score>  (707) 
-41.221944

>  <inchikey>  (707) 
VPQMBWSBWYPABJ-UHFFFAOYSA-N

>  <gnina_score_min>  (707) 
6.367

>  <gnina_score>  (707) 
6.463

>  <ref_mols>  (707) 
Z3559a

>  <HIPPO Compound ID>  (707) 
179592

>  <distance_score>  (707) 
0.344747

>  <rmsd(smina/fragmenstein)>  (707) 
0.843

>  <ref_pdb>  (707) 
Z3559a

>  <inspiration_score>  (707) 
None

$$$$
P125561
     RDKit          3D

 33 38  0  0  0  0  0  0  0  0999 V2000
   -7.0868    6.6774  -13.4330 O   0  0  0  0  0  0  0  0  0  0  0  0
   -7.3509    5.5605  -13.6514 C   0  0  0  0  0  0  0  0  0  0  0  0
   -7.8421    4.4417  -12.7017 N   0  0  0  0  0  0  0  0  0  0  0  0
   -8.0133    4.4391  -11.3194 C   0  0  0  0  0  0  0  0  0  0  0  0
   -7.6985    5.5894  -10.5754 C   0  0  0  0  0  0  0  0  0  0  0  0
   -7.8461    5.6132   -9.1906 C   0  0  0  0  0  0  0  0  0  0  0  0
   -8.3114    4.4719   -8.5721 C   0  0  0  0  0  0  0  0  0  0  0  0
   -8.6404    3.3263   -9.3004 C   0  0  0  0  0  0  0  0  0  0  0  0
   -8.4918    3.2897  -10.6795 C   0  0  0  0  0  0  0  0  0  0  0  0
   -9.1743    2.2861   -8.3606 C   0  0  0  0  0  0  0  0  0  0  0  0
   -8.8724    2.8282   -7.0292 N   0  0  0  0  0  0  0  0  0  0  0  0
   -9.6773    2.3740   -5.9076 C   0  0  0  0  0  0  0  0  0  0  0  0
  -11.0155    3.0394   -5.6133 C   0  0  0  0  0  0  0  0  0  0  0  0
  -10.8127    4.2928   -5.1194 F   0  0  0  0  0  0  0  0  0  0  0  0
  -11.6791    2.3605   -4.6416 F   0  0  0  0  0  0  0  0  0  0  0  0
   -8.5875    4.2539   -7.1226 C   0  0  0  0  0  0  0  0  0  0  0  0
   -7.2211    5.0983  -15.0463 C   0  0  0  0  0  0  0  0  0  0  0  0
   -8.2335    4.3953  -15.7044 C   0  0  0  0  0  0  0  0  0  0  0  0
   -8.0852    4.0753  -17.0570 C   0  0  0  0  0  0  0  0  0  0  0  0
   -9.1144    3.2169  -17.7363 C   0  0  0  0  0  0  0  0  0  0  0  0
   -9.1277    3.1191  -19.2370 C   0  0  0  0  0  0  0  0  0  0  0  0
  -10.2563    3.8019  -18.5272 C   0  0  0  0  0  0  0  0  0  0  0  0
   -7.0100    4.4490  -17.7902 N   0  0  0  0  0  0  0  0  0  0  0  0
   -6.0693    5.1262  -17.1186 C   0  0  0  0  0  0  0  0  0  0  0  0
   -6.0906    5.4712  -15.7826 C   0  0  0  0  0  0  0  0  0  0  0  0
   -4.8812    6.1690  -15.5854 C   0  0  0  0  0  0  0  0  0  0  0  0
   -4.1531    6.2754  -16.7034 N   0  0  0  0  0  0  0  0  0  0  0  0
   -4.9029    5.6312  -17.6284 N   0  0  0  0  0  0  0  0  0  0  0  0
   -4.5048    5.5792  -19.0155 C   0  0  0  0  0  0  0  0  0  0  0  0
   -2.9996    5.5169  -19.2792 C   0  0  0  0  0  0  0  0  0  0  0  0
   -2.9046    5.8182  -20.7691 C   0  0  0  0  0  0  0  0  0  0  0  0
   -4.0535    6.7845  -21.0650 C   0  0  0  0  0  0  0  0  0  0  0  0
   -4.9271    6.8132  -19.8114 C   0  0  0  0  0  0  0  0  0  0  0  0
  1  2  2  0
  2  3  1  0
  3  4  1  0
  4  5  2  0
  5  6  1  0
  6  7  2  0
  7  8  1  0
  8  9  2  0
  8 10  1  0
 10 11  1  0
 11 12  1  0
 12 13  1  0
 13 14  1  0
 13 15  1  0
 11 16  1  0
  2 17  1  0
 17 18  2  0
 18 19  1  0
 19 20  1  0
 20 21  1  0
 21 22  1  0
 19 23  2  0
 23 24  1  0
 24 25  2  0
 25 26  1  0
 26 27  2  0
 27 28  1  0
 28 29  1  0
 29 30  1  0
 30 31  1  0
 31 32  1  0
 32 33  1  0
  9  4  1  0
 25 17  1  0
 33 29  1  0
 16  7  1  0
 22 20  1  0
 28 24  1  0
M  END
>  <name>  (708) 
P125561

>  <alias>  (708) 
None

>  <smina_score_min>  (708) 
-9.77

>  <exports>  (708) 
['/opt/xchem-fragalysis-2/maxwin/BulkDock/OUTPUTS/openbind_xx01zvns2b_c2_elabs_1LOUTNY.sdf', '/opt/xchem-fragalysis-2/maxwin/BulkDock/OUTPUTS/openbind_xx01zvns2b_c2_elabs_1LSYIIV.sdf']

>  <tags>  (708) 
syndirella_placed,openbind_xx01zvns2b_c2_elabs,openbind_xx01zvns2b_c2_elabs_scored_6.2plus,syndirella_product,openbind_xx01zvns2b_c2_elabs_scored,openbind_xx01zvns2b_c2_elabs_scored_top80percent,BulkDock Fragalysis export

>  <subsites>  (708) 
1 - Z4590/B/203/1

>  <smiles>  (708) 
O=C(Nc1ccc2c(c1)CN(CC(F)F)C2)c1cc(C2CC2)nc2c1cnn2C1CCCC1

>  <HIPPO Pose ID>  (708) 
125561

>  <energy_score>  (708) 
-46.888677

>  <inchikey>  (708) 
HMCOTHBVXFLPRJ-UHFFFAOYSA-N

>  <gnina_score_min>  (708) 
6.798

>  <gnina_score>  (708) 
6.628

>  <ref_mols>  (708) 
Z3559a

>  <HIPPO Compound ID>  (708) 
179721

>  <distance_score>  (708) 
0.557536

>  <rmsd(smina/fragmenstein)>  (708) 
0.702

>  <ref_pdb>  (708) 
Z3559a

>  <inspiration_score>  (708) 
None

$$$$
P125562
     RDKit          3D

 33 38  0  0  0  0  0  0  0  0999 V2000
  -10.8490    2.1252   -5.7417 C   0  0  0  0  0  0  0  0  0  0  0  0
   -9.4136    2.6108   -5.8695 C   0  0  0  0  0  0  0  0  0  0  0  0
   -9.0897    3.4983   -4.6573 C   0  0  0  0  0  0  0  0  0  0  0  0
   -9.1739    3.2741   -7.1413 N   0  0  0  0  0  0  0  0  0  0  0  0
   -8.3775    4.4731   -7.2187 C   0  0  0  0  0  0  0  0  0  0  0  0
   -8.1775    4.6427   -8.6717 C   0  0  0  0  0  0  0  0  0  0  0  0
   -7.6218    5.7153   -9.3253 C   0  0  0  0  0  0  0  0  0  0  0  0
   -7.5359    5.6369  -10.7072 C   0  0  0  0  0  0  0  0  0  0  0  0
   -7.9770    4.4963  -11.4101 C   0  0  0  0  0  0  0  0  0  0  0  0
   -7.8372    4.4808  -12.7912 N   0  0  0  0  0  0  0  0  0  0  0  0
   -7.1885    5.5070  -13.7448 C   0  0  0  0  0  0  0  0  0  0  0  0
   -6.7382    6.5623  -13.5282 O   0  0  0  0  0  0  0  0  0  0  0  0
   -7.1425    5.0378  -15.1366 C   0  0  0  0  0  0  0  0  0  0  0  0
   -8.2443    4.4712  -15.7723 C   0  0  0  0  0  0  0  0  0  0  0  0
   -8.1977    4.2372  -17.1483 C   0  0  0  0  0  0  0  0  0  0  0  0
   -9.4603    3.7641  -17.8384 C   0  0  0  0  0  0  0  0  0  0  0  0
   -9.4453    2.5169  -18.6810 C   0  0  0  0  0  0  0  0  0  0  0  0
   -9.5993    3.8573  -19.3346 C   0  0  0  0  0  0  0  0  0  0  0  0
   -7.0976    4.5049  -17.9020 N   0  0  0  0  0  0  0  0  0  0  0  0
   -6.0560    5.0504  -17.2476 C   0  0  0  0  0  0  0  0  0  0  0  0
   -6.0060    5.3283  -15.8952 C   0  0  0  0  0  0  0  0  0  0  0  0
   -4.7338    5.8912  -15.6847 C   0  0  0  0  0  0  0  0  0  0  0  0
   -4.0128    5.9625  -16.8035 N   0  0  0  0  0  0  0  0  0  0  0  0
   -4.8538    5.4837  -17.7586 N   0  0  0  0  0  0  0  0  0  0  0  0
   -4.3706    5.4688  -19.1217 C   0  0  0  0  0  0  0  0  0  0  0  0
   -5.3870    5.1895  -20.2195 C   0  0  0  0  0  0  0  0  0  0  0  0
   -4.6404    5.5646  -21.4893 C   0  0  0  0  0  0  0  0  0  0  0  0
   -3.8165    6.7886  -21.1054 C   0  0  0  0  0  0  0  0  0  0  0  0
   -3.7809    6.8143  -19.5767 C   0  0  0  0  0  0  0  0  0  0  0  0
   -8.5381    3.4106  -10.7370 C   0  0  0  0  0  0  0  0  0  0  0  0
   -8.6395    3.5244   -9.3632 C   0  0  0  0  0  0  0  0  0  0  0  0
   -9.2587    2.6266   -8.3778 C   0  0  0  0  0  0  0  0  0  0  0  0
   -9.7721    1.5616   -8.6540 O   0  0  0  0  0  0  0  0  0  0  0  0
  1  2  1  0
  2  3  1  0
  2  4  1  0
  4  5  1  0
  5  6  1  0
  6  7  2  0
  7  8  1  0
  8  9  2  0
  9 10  1  0
 10 11  1  0
 11 12  2  0
 11 13  1  0
 13 14  2  0
 14 15  1  0
 15 16  1  0
 16 17  1  0
 17 18  1  0
 15 19  2  0
 19 20  1  0
 20 21  2  0
 21 22  1  0
 22 23  2  0
 23 24  1  0
 24 25  1  0
 25 26  1  0
 26 27  1  0
 27 28  1  0
 28 29  1  0
  9 30  1  0
 30 31  2  0
 31 32  1  0
 32 33  2  0
 32  4  1  0
 31  6  1  0
 21 13  1  0
 29 25  1  0
 18 16  1  0
 24 20  1  0
M  END
>  <name>  (709) 
P125562

>  <alias>  (709) 
None

>  <smina_score_min>  (709) 
-9.937

>  <exports>  (709) 
['/opt/xchem-fragalysis-2/maxwin/BulkDock/OUTPUTS/openbind_xx01zvns2b_c2_elabs_1LOUTNY.sdf', '/opt/xchem-fragalysis-2/maxwin/BulkDock/OUTPUTS/openbind_xx01zvns2b_c2_elabs_1LSYIIV.sdf']

>  <tags>  (709) 
syndirella_placed,openbind_xx01zvns2b_c2_elabs,openbind_xx01zvns2b_c2_elabs_scored_6.2plus,syndirella_product,openbind_xx01zvns2b_c2_elabs_scored,openbind_xx01zvns2b_c2_elabs_scored_top80percent,BulkDock Fragalysis export

>  <subsites>  (709) 
1 - Z4590/B/203/1

>  <smiles>  (709) 
CC(C)N1Cc2ccc(NC(=O)c3cc(C4CC4)nc4c3cnn4C3CCCC3)cc2C1=O

>  <HIPPO Pose ID>  (709) 
125562

>  <energy_score>  (709) 
-49.984362

>  <inchikey>  (709) 
JODZZSIBCDFZOQ-UHFFFAOYSA-N

>  <gnina_score_min>  (709) 
6.628

>  <gnina_score>  (709) 
6.396

>  <ref_mols>  (709) 
Z3559a

>  <HIPPO Compound ID>  (709) 
179722

>  <distance_score>  (709) 
0.586171

>  <rmsd(smina/fragmenstein)>  (709) 
1.185

>  <ref_pdb>  (709) 
Z3559a

>  <inspiration_score>  (709) 
None

$$$$
P125563
     RDKit          3D

 33 38  0  0  0  0  0  0  0  0999 V2000
   -4.1747    6.0910  -14.0071 C   0  0  0  0  0  0  0  0  0  0  0  0
   -4.8051    5.7254  -15.3021 C   0  0  0  0  0  0  0  0  0  0  0  0
   -4.0750    5.8093  -16.4188 N   0  0  0  0  0  0  0  0  0  0  0  0
   -4.9102    5.3882  -17.4190 N   0  0  0  0  0  0  0  0  0  0  0  0
   -4.4529    5.3662  -18.7757 C   0  0  0  0  0  0  0  0  0  0  0  0
   -3.1101    5.6493  -19.0380 C   0  0  0  0  0  0  0  0  0  0  0  0
   -2.6533    5.6096  -20.3550 C   0  0  0  0  0  0  0  0  0  0  0  0
   -3.5447    5.3117  -21.3771 C   0  0  0  0  0  0  0  0  0  0  0  0
   -4.8595    5.0520  -21.0365 C   0  0  0  0  0  0  0  0  0  0  0  0
   -5.3211    5.0619  -19.7691 N   0  0  0  0  0  0  0  0  0  0  0  0
   -6.1572    5.0276  -16.9209 C   0  0  0  0  0  0  0  0  0  0  0  0
   -7.2111    4.5469  -17.6066 N   0  0  0  0  0  0  0  0  0  0  0  0
   -8.3259    4.2696  -16.8981 C   0  0  0  0  0  0  0  0  0  0  0  0
   -9.5541    3.8080  -17.6575 C   0  0  0  0  0  0  0  0  0  0  0  0
   -9.6595    4.0111  -19.1491 C   0  0  0  0  0  0  0  0  0  0  0  0
   -9.4595    2.6324  -18.5986 C   0  0  0  0  0  0  0  0  0  0  0  0
   -8.3964    4.4660  -15.5172 C   0  0  0  0  0  0  0  0  0  0  0  0
   -7.2947    4.9776  -14.8261 C   0  0  0  0  0  0  0  0  0  0  0  0
   -7.3885    5.3636  -13.3973 C   0  0  0  0  0  0  0  0  0  0  0  0
   -6.9646    6.4134  -13.1082 O   0  0  0  0  0  0  0  0  0  0  0  0
   -8.0039    4.2508  -12.5122 N   0  0  0  0  0  0  0  0  0  0  0  0
   -8.1337    4.1637  -11.1226 C   0  0  0  0  0  0  0  0  0  0  0  0
   -7.6706    5.2208  -10.3067 C   0  0  0  0  0  0  0  0  0  0  0  0
   -7.7164    5.1401   -8.9104 C   0  0  0  0  0  0  0  0  0  0  0  0
   -8.2546    3.9957   -8.3641 C   0  0  0  0  0  0  0  0  0  0  0  0
   -8.7556    2.9761   -9.1543 C   0  0  0  0  0  0  0  0  0  0  0  0
   -8.6953    3.0210  -10.5399 C   0  0  0  0  0  0  0  0  0  0  0  0
   -9.3178    1.9762   -8.2432 C   0  0  0  0  0  0  0  0  0  0  0  0
   -9.9585    1.0024   -8.5775 O   0  0  0  0  0  0  0  0  0  0  0  0
   -9.0527    2.4026   -6.9760 N   0  0  0  0  0  0  0  0  0  0  0  0
   -8.4098    3.5997   -6.9630 C   0  0  0  0  0  0  0  0  0  0  0  0
   -8.0074    4.2381   -6.0073 O   0  0  0  0  0  0  0  0  0  0  0  0
   -6.1203    5.2552  -15.5523 C   0  0  0  0  0  0  0  0  0  0  0  0
  1  2  1  0
  2  3  2  0
  3  4  1  0
  4  5  1  0
  5  6  2  0
  6  7  1  0
  7  8  2  0
  8  9  1  0
  9 10  2  0
  4 11  1  0
 11 12  2  0
 12 13  1  0
 13 14  1  0
 14 15  1  0
 15 16  1  0
 13 17  2  0
 17 18  1  0
 18 19  1  0
 19 20  2  0
 19 21  1  0
 21 22  1  0
 22 23  2  0
 23 24  1  0
 24 25  2  0
 25 26  1  0
 26 27  2  0
 26 28  1  0
 28 29  2  0
 28 30  1  0
 30 31  1  0
 31 32  2  0
 18 33  2  0
 33  2  1  0
 10  5  1  0
 33 11  1  0
 16 14  1  0
 27 22  1  0
 31 25  1  0
M  END
>  <name>  (710) 
P125563

>  <alias>  (710) 
None

>  <smina_score_min>  (710) 
-9.991

>  <exports>  (710) 
['/opt/xchem-fragalysis-2/maxwin/BulkDock/OUTPUTS/openbind_xx01zvns2b_c2_elabs_1LOUTNY.sdf', '/opt/xchem-fragalysis-2/maxwin/BulkDock/OUTPUTS/openbind_xx01zvns2b_c2_elabs_1LSYIIV.sdf']

>  <tags>  (710) 
syndirella_placed,openbind_xx01zvns2b_c2_elabs,openbind_xx01zvns2b_c2_elabs_scored_6.2plus,syndirella_product,openbind_xx01zvns2b_c2_elabs_scored,openbind_xx01zvns2b_c2_elabs_scored_top80percent,BulkDock Fragalysis export

>  <subsites>  (710) 
1 - Z4590/B/203/1

>  <smiles>  (710) 
Cc1nn(-c2ccccn2)c2nc(C3CC3)cc(C(=O)Nc3ccc4c(c3)C(=O)NC4=O)c12

>  <HIPPO Pose ID>  (710) 
125563

>  <energy_score>  (710) 
-44.038791

>  <inchikey>  (710) 
PUQHMYPHOZHVIY-UHFFFAOYSA-N

>  <gnina_score_min>  (710) 
6.378

>  <gnina_score>  (710) 
6.529

>  <ref_mols>  (710) 
Z3559a

>  <HIPPO Compound ID>  (710) 
179638

>  <distance_score>  (710) 
0.383804

>  <rmsd(smina/fragmenstein)>  (710) 
0.65

>  <ref_pdb>  (710) 
Z3559a

>  <inspiration_score>  (710) 
None

$$$$
P125564
     RDKit          3D

 33 38  0  0  0  0  0  0  0  0999 V2000
   -4.0989    6.2494  -14.2558 C   0  0  0  0  0  0  0  0  0  0  0  0
   -4.7234    5.8112  -15.5308 C   0  0  0  0  0  0  0  0  0  0  0  0
   -4.0016    5.8465  -16.6544 N   0  0  0  0  0  0  0  0  0  0  0  0
   -4.8444    5.3869  -17.6326 N   0  0  0  0  0  0  0  0  0  0  0  0
   -4.3975    5.3235  -18.9915 C   0  0  0  0  0  0  0  0  0  0  0  0
   -3.0568    5.6036  -19.2701 C   0  0  0  0  0  0  0  0  0  0  0  0
   -2.6059    5.5255  -20.5872 C   0  0  0  0  0  0  0  0  0  0  0  0
   -3.5018    5.1994  -21.5958 C   0  0  0  0  0  0  0  0  0  0  0  0
   -4.8144    4.9480  -21.2409 C   0  0  0  0  0  0  0  0  0  0  0  0
   -5.2701    4.9817  -19.9707 N   0  0  0  0  0  0  0  0  0  0  0  0
   -6.0845    5.0327  -17.1109 C   0  0  0  0  0  0  0  0  0  0  0  0
   -7.1458    4.5146  -17.7630 N   0  0  0  0  0  0  0  0  0  0  0  0
   -8.2522    4.2683  -17.0255 C   0  0  0  0  0  0  0  0  0  0  0  0
   -9.5027    3.7877  -17.7338 C   0  0  0  0  0  0  0  0  0  0  0  0
   -9.4418    2.5886  -18.6452 C   0  0  0  0  0  0  0  0  0  0  0  0
   -9.6529    3.9545  -19.2244 C   0  0  0  0  0  0  0  0  0  0  0  0
   -8.3008    4.5145  -15.6547 C   0  0  0  0  0  0  0  0  0  0  0  0
   -7.1895    5.0575  -15.0074 C   0  0  0  0  0  0  0  0  0  0  0  0
   -7.2767    5.4841  -13.5976 C   0  0  0  0  0  0  0  0  0  0  0  0
   -6.9625    6.5770  -13.3356 O   0  0  0  0  0  0  0  0  0  0  0  0
   -7.8096    4.3519  -12.6932 N   0  0  0  0  0  0  0  0  0  0  0  0
   -7.9721    4.2989  -11.3108 C   0  0  0  0  0  0  0  0  0  0  0  0
   -7.7234    5.4359  -10.5174 C   0  0  0  0  0  0  0  0  0  0  0  0
   -7.9210    5.4041   -9.1360 C   0  0  0  0  0  0  0  0  0  0  0  0
   -8.3695    4.2202   -8.5895 C   0  0  0  0  0  0  0  0  0  0  0  0
   -8.6179    3.0844   -9.3574 C   0  0  0  0  0  0  0  0  0  0  0  0
   -8.4138    3.1047  -10.7276 C   0  0  0  0  0  0  0  0  0  0  0  0
   -9.1557    1.9974   -8.4885 C   0  0  0  0  0  0  0  0  0  0  0  0
   -9.2386    2.6466   -7.1907 N   0  0  0  0  0  0  0  0  0  0  0  0
   -9.9949    2.0743   -6.1085 C   0  0  0  0  0  0  0  0  0  0  0  0
   -8.7780    3.9465   -7.2071 C   0  0  0  0  0  0  0  0  0  0  0  0
   -8.7631    4.7677   -6.3083 O   0  0  0  0  0  0  0  0  0  0  0  0
   -6.0310    5.3160  -15.7533 C   0  0  0  0  0  0  0  0  0  0  0  0
  1  2  1  0
  2  3  2  0
  3  4  1  0
  4  5  1  0
  5  6  2  0
  6  7  1  0
  7  8  2  0
  8  9  1  0
  9 10  2  0
  4 11  1  0
 11 12  2  0
 12 13  1  0
 13 14  1  0
 14 15  1  0
 15 16  1  0
 13 17  2  0
 17 18  1  0
 18 19  1  0
 19 20  2  0
 19 21  1  0
 21 22  1  0
 22 23  2  0
 23 24  1  0
 24 25  2  0
 25 26  1  0
 26 27  2  0
 26 28  1  0
 28 29  1  0
 29 30  1  0
 29 31  1  0
 31 32  2  0
 18 33  2  0
 33  2  1  0
 10  5  1  0
 33 11  1  0
 16 14  1  0
 27 22  1  0
 31 25  1  0
M  END
>  <name>  (711) 
P125564

>  <alias>  (711) 
None

>  <smina_score_min>  (711) 
-10.155

>  <exports>  (711) 
['/opt/xchem-fragalysis-2/maxwin/BulkDock/OUTPUTS/openbind_xx01zvns2b_c2_elabs_1LOUTNY.sdf', '/opt/xchem-fragalysis-2/maxwin/BulkDock/OUTPUTS/openbind_xx01zvns2b_c2_elabs_1LSYIIV.sdf']

>  <tags>  (711) 
syndirella_placed,openbind_xx01zvns2b_c2_elabs,openbind_xx01zvns2b_c2_elabs_scored_6.2plus,syndirella_product,openbind_xx01zvns2b_c2_elabs_scored,openbind_xx01zvns2b_c2_elabs_scored_top80percent,BulkDock Fragalysis export

>  <subsites>  (711) 
1 - Z4590/B/203/1

>  <smiles>  (711) 
Cc1nn(-c2ccccn2)c2nc(C3CC3)cc(C(=O)Nc3ccc4c(c3)CN(C)C4=O)c12

>  <HIPPO Pose ID>  (711) 
125564

>  <energy_score>  (711) 
-39.928486

>  <inchikey>  (711) 
KZSMDXJUKJEDTJ-UHFFFAOYSA-N

>  <gnina_score_min>  (711) 
6.502

>  <gnina_score>  (711) 
6.537

>  <ref_mols>  (711) 
Z3559a

>  <HIPPO Compound ID>  (711) 
179637

>  <distance_score>  (711) 
0.402392

>  <rmsd(smina/fragmenstein)>  (711) 
1.033

>  <ref_pdb>  (711) 
Z3559a

>  <inspiration_score>  (711) 
None

$$$$
P125565
     RDKit          3D

 33 38  0  0  0  0  0  0  0  0999 V2000
   -4.2553    6.1968  -14.0399 C   0  0  0  0  0  0  0  0  0  0  0  0
   -4.8449    5.7769  -15.3376 C   0  0  0  0  0  0  0  0  0  0  0  0
   -4.0970    5.8391  -16.4448 N   0  0  0  0  0  0  0  0  0  0  0  0
   -4.9176    5.3915  -17.4484 N   0  0  0  0  0  0  0  0  0  0  0  0
   -4.4469    5.3472  -18.7998 C   0  0  0  0  0  0  0  0  0  0  0  0
   -3.1044    5.6352  -19.0568 C   0  0  0  0  0  0  0  0  0  0  0  0
   -2.6340    5.5573  -20.3677 C   0  0  0  0  0  0  0  0  0  0  0  0
   -3.5122    5.2182  -21.3891 C   0  0  0  0  0  0  0  0  0  0  0  0
   -4.8290    4.9612  -21.0551 C   0  0  0  0  0  0  0  0  0  0  0  0
   -5.3023    5.0084  -19.7928 N   0  0  0  0  0  0  0  0  0  0  0  0
   -6.1659    5.0244  -16.9588 C   0  0  0  0  0  0  0  0  0  0  0  0
   -7.2100    4.5242  -17.6461 N   0  0  0  0  0  0  0  0  0  0  0  0
   -8.3316    4.2549  -16.9438 C   0  0  0  0  0  0  0  0  0  0  0  0
   -9.5576    3.7934  -17.7047 C   0  0  0  0  0  0  0  0  0  0  0  0
   -9.6444    3.9660  -19.2005 C   0  0  0  0  0  0  0  0  0  0  0  0
   -9.4715    2.5966  -18.6176 C   0  0  0  0  0  0  0  0  0  0  0  0
   -8.4147    4.4664  -15.5674 C   0  0  0  0  0  0  0  0  0  0  0  0
   -7.3224    4.9974  -14.8799 C   0  0  0  0  0  0  0  0  0  0  0  0
   -7.4430    5.4206  -13.4702 C   0  0  0  0  0  0  0  0  0  0  0  0
   -7.1597    6.5265  -13.2235 O   0  0  0  0  0  0  0  0  0  0  0  0
   -7.9301    4.2790  -12.5444 N   0  0  0  0  0  0  0  0  0  0  0  0
   -8.0745    4.2359  -11.1489 C   0  0  0  0  0  0  0  0  0  0  0  0
   -8.6546    3.0947  -10.5793 C   0  0  0  0  0  0  0  0  0  0  0  0
   -8.7976    3.0611   -9.1988 C   0  0  0  0  0  0  0  0  0  0  0  0
   -8.3661    4.0921   -8.3655 C   0  0  0  0  0  0  0  0  0  0  0  0
   -7.7884    5.2187   -8.9091 C   0  0  0  0  0  0  0  0  0  0  0  0
   -7.6483    5.2825  -10.2991 C   0  0  0  0  0  0  0  0  0  0  0  0
   -7.0458    6.3764  -10.7802 F   0  0  0  0  0  0  0  0  0  0  0  0
   -8.6359    3.7513   -6.9402 C   0  0  0  0  0  0  0  0  0  0  0  0
   -9.3048    2.4856   -7.0406 N   0  0  0  0  0  0  0  0  0  0  0  0
   -9.4153    2.0417   -8.3410 C   0  0  0  0  0  0  0  0  0  0  0  0
   -9.9619    1.0261   -8.7109 O   0  0  0  0  0  0  0  0  0  0  0  0
   -6.1453    5.2760  -15.5953 C   0  0  0  0  0  0  0  0  0  0  0  0
  1  2  1  0
  2  3  2  0
  3  4  1  0
  4  5  1  0
  5  6  2  0
  6  7  1  0
  7  8  2  0
  8  9  1  0
  9 10  2  0
  4 11  1  0
 11 12  2  0
 12 13  1  0
 13 14  1  0
 14 15  1  0
 15 16  1  0
 13 17  2  0
 17 18  1  0
 18 19  1  0
 19 20  2  0
 19 21  1  0
 21 22  1  0
 22 23  2  0
 23 24  1  0
 24 25  2  0
 25 26  1  0
 26 27  2  0
 27 28  1  0
 25 29  1  0
 29 30  1  0
 30 31  1  0
 31 32  2  0
 18 33  2  0
 33  2  1  0
 10  5  1  0
 33 11  1  0
 16 14  1  0
 27 22  1  0
 31 24  1  0
M  END
>  <name>  (712) 
P125565

>  <alias>  (712) 
None

>  <smina_score_min>  (712) 
-9.685

>  <exports>  (712) 
['/opt/xchem-fragalysis-2/maxwin/BulkDock/OUTPUTS/openbind_xx01zvns2b_c2_elabs_1LOUTNY.sdf', '/opt/xchem-fragalysis-2/maxwin/BulkDock/OUTPUTS/openbind_xx01zvns2b_c2_elabs_1LSYIIV.sdf']

>  <tags>  (712) 
syndirella_placed,openbind_xx01zvns2b_c2_elabs,openbind_xx01zvns2b_c2_elabs_scored_6.2plus,syndirella_product,openbind_xx01zvns2b_c2_elabs_scored,openbind_xx01zvns2b_c2_elabs_scored_top80percent,BulkDock Fragalysis export

>  <subsites>  (712) 
1 - Z4590/B/203/1

>  <smiles>  (712) 
Cc1nn(-c2ccccn2)c2nc(C3CC3)cc(C(=O)Nc3cc4c(cc3F)CNC4=O)c12

>  <HIPPO Pose ID>  (712) 
125565

>  <energy_score>  (712) 
-39.881477

>  <inchikey>  (712) 
LWQCVZVDWZAVRV-UHFFFAOYSA-N

>  <gnina_score_min>  (712) 
6.526

>  <gnina_score>  (712) 
6.642

>  <ref_mols>  (712) 
Z3559a

>  <HIPPO Compound ID>  (712) 
179636

>  <distance_score>  (712) 
0.40574

>  <rmsd(smina/fragmenstein)>  (712) 
0.809

>  <ref_pdb>  (712) 
Z3559a

>  <inspiration_score>  (712) 
None

$$$$
P125566
     RDKit          3D

 33 38  0  0  0  0  0  0  0  0999 V2000
   -4.0292    6.2435  -14.3616 C   0  0  0  0  0  0  0  0  0  0  0  0
   -4.6954    5.8228  -15.6207 C   0  0  0  0  0  0  0  0  0  0  0  0
   -4.0008    5.8581  -16.7584 N   0  0  0  0  0  0  0  0  0  0  0  0
   -4.8562    5.4019  -17.7225 N   0  0  0  0  0  0  0  0  0  0  0  0
   -4.4030    5.3198  -19.0817 C   0  0  0  0  0  0  0  0  0  0  0  0
   -5.2789    5.0321  -20.1221 C   0  0  0  0  0  0  0  0  0  0  0  0
   -4.7746    4.9239  -21.4207 C   0  0  0  0  0  0  0  0  0  0  0  0
   -3.4150    5.0882  -21.6508 C   0  0  0  0  0  0  0  0  0  0  0  0
   -2.6060    5.3755  -20.5688 C   0  0  0  0  0  0  0  0  0  0  0  0
   -3.0706    5.5085  -19.3095 N   0  0  0  0  0  0  0  0  0  0  0  0
   -6.0903    5.0586  -17.1760 C   0  0  0  0  0  0  0  0  0  0  0  0
   -7.1623    4.5374  -17.8097 N   0  0  0  0  0  0  0  0  0  0  0  0
   -8.2536    4.2892  -17.0483 C   0  0  0  0  0  0  0  0  0  0  0  0
   -9.5105    3.7851  -17.7259 C   0  0  0  0  0  0  0  0  0  0  0  0
   -9.7242    3.9730  -19.2052 C   0  0  0  0  0  0  0  0  0  0  0  0
   -9.4388    2.6054  -18.6620 C   0  0  0  0  0  0  0  0  0  0  0  0
   -8.2808    4.5504  -15.6802 C   0  0  0  0  0  0  0  0  0  0  0  0
   -7.1588    5.0958  -15.0525 C   0  0  0  0  0  0  0  0  0  0  0  0
   -7.2114    5.5162  -13.6371 C   0  0  0  0  0  0  0  0  0  0  0  0
   -6.8080    6.5752  -13.3612 O   0  0  0  0  0  0  0  0  0  0  0  0
   -7.8256    4.4171  -12.7466 N   0  0  0  0  0  0  0  0  0  0  0  0
   -7.9799    4.3545  -11.3669 C   0  0  0  0  0  0  0  0  0  0  0  0
   -7.5566    5.4124  -10.5371 C   0  0  0  0  0  0  0  0  0  0  0  0
   -7.7146    5.3554   -9.1463 C   0  0  0  0  0  0  0  0  0  0  0  0
   -8.3282    4.2419   -8.6133 C   0  0  0  0  0  0  0  0  0  0  0  0
   -8.7611    3.2179   -9.4537 C   0  0  0  0  0  0  0  0  0  0  0  0
   -8.5822    3.2264  -10.8212 C   0  0  0  0  0  0  0  0  0  0  0  0
   -9.4797    2.2414   -8.6422 C   0  0  0  0  0  0  0  0  0  0  0  0
   -9.9737    1.2192   -9.0677 O   0  0  0  0  0  0  0  0  0  0  0  0
   -9.5032    2.7387   -7.3508 N   0  0  0  0  0  0  0  0  0  0  0  0
   -9.8225    1.8777   -6.2505 C   0  0  0  0  0  0  0  0  0  0  0  0
   -8.6614    3.9054   -7.1997 C   0  0  0  0  0  0  0  0  0  0  0  0
   -6.0121    5.3440  -15.8196 C   0  0  0  0  0  0  0  0  0  0  0  0
  1  2  1  0
  2  3  2  0
  3  4  1  0
  4  5  1  0
  5  6  2  0
  6  7  1  0
  7  8  2  0
  8  9  1  0
  9 10  2  0
  4 11  1  0
 11 12  2  0
 12 13  1  0
 13 14  1  0
 14 15  1  0
 15 16  1  0
 13 17  2  0
 17 18  1  0
 18 19  1  0
 19 20  2  0
 19 21  1  0
 21 22  1  0
 22 23  2  0
 23 24  1  0
 24 25  2  0
 25 26  1  0
 26 27  2  0
 26 28  1  0
 28 29  2  0
 28 30  1  0
 30 31  1  0
 30 32  1  0
 18 33  2  0
 33  2  1  0
 10  5  1  0
 33 11  1  0
 16 14  1  0
 27 22  1  0
 32 25  1  0
M  END
>  <name>  (713) 
P125566

>  <alias>  (713) 
None

>  <smina_score_min>  (713) 
-9.284

>  <exports>  (713) 
['/opt/xchem-fragalysis-2/maxwin/BulkDock/OUTPUTS/openbind_xx01zvns2b_c2_elabs_1LOUTNY.sdf', '/opt/xchem-fragalysis-2/maxwin/BulkDock/OUTPUTS/openbind_xx01zvns2b_c2_elabs_1LSYIIV.sdf']

>  <tags>  (713) 
syndirella_placed,openbind_xx01zvns2b_c2_elabs,openbind_xx01zvns2b_c2_elabs_scored_6.2plus,syndirella_product,openbind_xx01zvns2b_c2_elabs_scored,openbind_xx01zvns2b_c2_elabs_scored_top80percent,BulkDock Fragalysis export

>  <subsites>  (713) 
1 - Z4590/B/203/1

>  <smiles>  (713) 
Cc1nn(-c2ccccn2)c2nc(C3CC3)cc(C(=O)Nc3ccc4c(c3)C(=O)N(C)C4)c12

>  <HIPPO Pose ID>  (713) 
125566

>  <energy_score>  (713) 
-38.174259

>  <inchikey>  (713) 
WMUHGZCUJPOPSW-UHFFFAOYSA-N

>  <gnina_score_min>  (713) 
6.29

>  <gnina_score>  (713) 
6.577

>  <ref_mols>  (713) 
Z3559a

>  <HIPPO Compound ID>  (713) 
179632

>  <distance_score>  (713) 
0.447759

>  <rmsd(smina/fragmenstein)>  (713) 
0.684

>  <ref_pdb>  (713) 
Z3559a

>  <inspiration_score>  (713) 
None

$$$$
P125567
     RDKit          3D

 33 38  0  0  0  0  0  0  0  0999 V2000
   -9.9617    1.0274   -8.7336 O   0  0  0  0  0  0  0  0  0  0  0  0
   -9.4188    2.0442   -8.3617 C   0  0  0  0  0  0  0  0  0  0  0  0
   -9.3164    2.4906   -7.0616 N   0  0  0  0  0  0  0  0  0  0  0  0
   -8.6513    3.7582   -6.9600 C   0  0  0  0  0  0  0  0  0  0  0  0
   -8.3783    4.0982   -8.3849 C   0  0  0  0  0  0  0  0  0  0  0  0
   -7.8121    5.2301   -8.9290 C   0  0  0  0  0  0  0  0  0  0  0  0
   -7.6568    5.2868  -10.3178 C   0  0  0  0  0  0  0  0  0  0  0  0
   -7.1308    6.4169  -10.8044 F   0  0  0  0  0  0  0  0  0  0  0  0
   -8.0440    4.2231  -11.1658 C   0  0  0  0  0  0  0  0  0  0  0  0
   -7.8364    4.2397  -12.5549 N   0  0  0  0  0  0  0  0  0  0  0  0
   -7.1253    5.2836  -13.4544 C   0  0  0  0  0  0  0  0  0  0  0  0
   -6.5358    6.2520  -13.1701 O   0  0  0  0  0  0  0  0  0  0  0  0
   -7.1689    4.9435  -14.9002 C   0  0  0  0  0  0  0  0  0  0  0  0
   -8.2993    4.4310  -15.5473 C   0  0  0  0  0  0  0  0  0  0  0  0
   -8.3014    4.2656  -16.9414 C   0  0  0  0  0  0  0  0  0  0  0  0
   -9.5592    3.7914  -17.6409 C   0  0  0  0  0  0  0  0  0  0  0  0
   -9.4867    2.6336  -18.6069 C   0  0  0  0  0  0  0  0  0  0  0  0
   -9.7552    4.0152  -19.1205 C   0  0  0  0  0  0  0  0  0  0  0  0
   -7.2337    4.5784  -17.7177 N   0  0  0  0  0  0  0  0  0  0  0  0
   -6.1754    5.0745  -17.0615 C   0  0  0  0  0  0  0  0  0  0  0  0
   -6.0611    5.2682  -15.6982 C   0  0  0  0  0  0  0  0  0  0  0  0
   -4.7564    5.7819  -15.5280 C   0  0  0  0  0  0  0  0  0  0  0  0
   -4.0831    5.8913  -16.6791 N   0  0  0  0  0  0  0  0  0  0  0  0
   -5.0001    5.5164  -17.6101 N   0  0  0  0  0  0  0  0  0  0  0  0
   -4.6555    5.5217  -19.0251 C   0  0  0  0  0  0  0  0  0  0  0  0
   -4.7238    6.8795  -19.6976 C   0  0  0  0  0  0  0  0  0  0  0  0
   -4.4169    8.0820  -19.0425 C   0  0  0  0  0  0  0  0  0  0  0  0
   -4.4127    9.2968  -19.7346 C   0  0  0  0  0  0  0  0  0  0  0  0
   -4.6938    9.3277  -21.0977 C   0  0  0  0  0  0  0  0  0  0  0  0
   -4.9827    8.1437  -21.7694 C   0  0  0  0  0  0  0  0  0  0  0  0
   -4.9996    6.9317  -21.0745 C   0  0  0  0  0  0  0  0  0  0  0  0
   -8.6421    3.0905  -10.5982 C   0  0  0  0  0  0  0  0  0  0  0  0
   -8.7998    3.0634   -9.2185 C   0  0  0  0  0  0  0  0  0  0  0  0
  1  2  2  0
  2  3  1  0
  3  4  1  0
  4  5  1  0
  5  6  2  0
  6  7  1  0
  7  8  1  0
  7  9  2  0
  9 10  1  0
 10 11  1  0
 11 12  2  0
 11 13  1  0
 13 14  2  0
 14 15  1  0
 15 16  1  0
 16 17  1  0
 17 18  1  0
 15 19  2  0
 19 20  1  0
 20 21  2  0
 21 22  1  0
 22 23  2  0
 23 24  1  0
 24 25  1  0
 25 26  1  0
 26 27  2  0
 27 28  1  0
 28 29  2  0
 29 30  1  0
 30 31  2  0
  9 32  1  0
 32 33  2  0
 33  2  1  0
 33  5  1  0
 21 13  1  0
 31 26  1  0
 18 16  1  0
 24 20  1  0
M  END
>  <name>  (714) 
P125567

>  <alias>  (714) 
None

>  <smina_score_min>  (714) 
-9.162

>  <exports>  (714) 
['/opt/xchem-fragalysis-2/maxwin/BulkDock/OUTPUTS/openbind_xx01zvns2b_c2_elabs_1LOUTNY.sdf', '/opt/xchem-fragalysis-2/maxwin/BulkDock/OUTPUTS/openbind_xx01zvns2b_c2_elabs_1LSYIIV.sdf']

>  <tags>  (714) 
syndirella_placed,openbind_xx01zvns2b_c2_elabs,openbind_xx01zvns2b_c2_elabs_scored_6.2plus,syndirella_product,openbind_xx01zvns2b_c2_elabs_scored,openbind_xx01zvns2b_c2_elabs_scored_top80percent,BulkDock Fragalysis export

>  <subsites>  (714) 
1 - Z4590/B/203/1

>  <smiles>  (714) 
O=C1NCc2cc(F)c(NC(=O)c3cc(C4CC4)nc4c3cnn4Cc3ccccc3)cc21

>  <HIPPO Pose ID>  (714) 
125567

>  <energy_score>  (714) 
-30.578045

>  <inchikey>  (714) 
FQUAUEBHMGYJBL-UHFFFAOYSA-N

>  <gnina_score_min>  (714) 
6.497

>  <gnina_score>  (714) 
6.523

>  <ref_mols>  (714) 
Z3559a

>  <HIPPO Compound ID>  (714) 
179586

>  <distance_score>  (714) 
0.324273

>  <rmsd(smina/fragmenstein)>  (714) 
0.513

>  <ref_pdb>  (714) 
Z3559a

>  <inspiration_score>  (714) 
None

$$$$
P125568
     RDKit          3D

 33 38  0  0  0  0  0  0  0  0999 V2000
   -9.9828    2.1406   -6.1038 C   0  0  0  0  0  0  0  0  0  0  0  0
   -9.2434    2.6854   -7.2120 N   0  0  0  0  0  0  0  0  0  0  0  0
   -9.2139    2.0255   -8.5055 C   0  0  0  0  0  0  0  0  0  0  0  0
   -8.6157    3.0699   -9.3860 C   0  0  0  0  0  0  0  0  0  0  0  0
   -8.4171    3.0650  -10.7574 C   0  0  0  0  0  0  0  0  0  0  0  0
   -7.8627    4.2062  -11.3494 C   0  0  0  0  0  0  0  0  0  0  0  0
   -7.6941    4.2292  -12.7318 N   0  0  0  0  0  0  0  0  0  0  0  0
   -7.0521    5.2977  -13.6482 C   0  0  0  0  0  0  0  0  0  0  0  0
   -6.6340    6.3589  -13.3960 O   0  0  0  0  0  0  0  0  0  0  0  0
   -7.0830    4.9031  -15.0761 C   0  0  0  0  0  0  0  0  0  0  0  0
   -8.2348    4.3700  -15.6716 C   0  0  0  0  0  0  0  0  0  0  0  0
   -8.2988    4.2097  -17.0595 C   0  0  0  0  0  0  0  0  0  0  0  0
   -9.5812    3.7423  -17.7071 C   0  0  0  0  0  0  0  0  0  0  0  0
   -9.8155    3.9333  -19.1849 C   0  0  0  0  0  0  0  0  0  0  0  0
   -9.5514    2.5606  -18.6436 C   0  0  0  0  0  0  0  0  0  0  0  0
   -7.2741    4.5431  -17.8745 N   0  0  0  0  0  0  0  0  0  0  0  0
   -6.1976    5.0620  -17.2701 C   0  0  0  0  0  0  0  0  0  0  0  0
   -6.0205    5.2618  -15.9153 C   0  0  0  0  0  0  0  0  0  0  0  0
   -4.7506    5.8679  -15.8188 C   0  0  0  0  0  0  0  0  0  0  0  0
   -4.1863    6.0963  -17.0120 N   0  0  0  0  0  0  0  0  0  0  0  0
   -5.1103    5.6230  -17.8938 N   0  0  0  0  0  0  0  0  0  0  0  0
   -5.1366    6.1100  -19.2679 C   0  0  0  0  0  0  0  0  0  0  0  0
   -4.1936    5.4469  -20.2344 C   0  0  0  0  0  0  0  0  0  0  0  0
   -4.6967    4.9184  -21.4353 C   0  0  0  0  0  0  0  0  0  0  0  0
   -3.8369    4.4878  -22.4440 C   0  0  0  0  0  0  0  0  0  0  0  0
   -2.4616    4.5676  -22.2587 C   0  0  0  0  0  0  0  0  0  0  0  0
   -1.9484    5.0461  -21.0541 C   0  0  0  0  0  0  0  0  0  0  0  0
   -2.8074    5.4869  -20.0468 C   0  0  0  0  0  0  0  0  0  0  0  0
   -7.5136    5.3216  -10.5632 C   0  0  0  0  0  0  0  0  0  0  0  0
   -7.7284    5.3233   -9.1827 C   0  0  0  0  0  0  0  0  0  0  0  0
   -8.2778    4.1876   -8.6263 C   0  0  0  0  0  0  0  0  0  0  0  0
   -8.6904    3.9486   -7.2377 C   0  0  0  0  0  0  0  0  0  0  0  0
   -8.5994    4.7658   -6.3398 O   0  0  0  0  0  0  0  0  0  0  0  0
  1  2  1  0
  2  3  1  0
  3  4  1  0
  4  5  2  0
  5  6  1  0
  6  7  1  0
  7  8  1  0
  8  9  2  0
  8 10  1  0
 10 11  2  0
 11 12  1  0
 12 13  1  0
 13 14  1  0
 14 15  1  0
 12 16  2  0
 16 17  1  0
 17 18  2  0
 18 19  1  0
 19 20  2  0
 20 21  1  0
 21 22  1  0
 22 23  1  0
 23 24  2  0
 24 25  1  0
 25 26  2  0
 26 27  1  0
 27 28  2  0
  6 29  2  0
 29 30  1  0
 30 31  2  0
 31 32  1  0
 32 33  2  0
 32  2  1  0
 31  4  1  0
 18 10  1  0
 28 23  1  0
 15 13  1  0
 21 17  1  0
M  END
>  <name>  (715) 
P125568

>  <alias>  (715) 
None

>  <smina_score_min>  (715) 
-10.122

>  <exports>  (715) 
['/opt/xchem-fragalysis-2/maxwin/BulkDock/OUTPUTS/openbind_xx01zvns2b_c2_elabs_1LOUTNY.sdf', '/opt/xchem-fragalysis-2/maxwin/BulkDock/OUTPUTS/openbind_xx01zvns2b_c2_elabs_1LSYIIV.sdf']

>  <tags>  (715) 
syndirella_placed,openbind_xx01zvns2b_c2_elabs,openbind_xx01zvns2b_c2_elabs_scored_6.2plus,syndirella_product,openbind_xx01zvns2b_c2_elabs_scored,openbind_xx01zvns2b_c2_elabs_scored_top80percent,BulkDock Fragalysis export

>  <subsites>  (715) 
1 - Z4590/B/203/1

>  <smiles>  (715) 
CN1Cc2cc(NC(=O)c3cc(C4CC4)nc4c3cnn4Cc3ccccc3)ccc2C1=O

>  <HIPPO Pose ID>  (715) 
125568

>  <energy_score>  (715) 
-38.326127

>  <inchikey>  (715) 
ONBPBBVJJLZLOJ-UHFFFAOYSA-N

>  <gnina_score_min>  (715) 
6.427

>  <gnina_score>  (715) 
6.418

>  <ref_mols>  (715) 
Z3559a

>  <HIPPO Compound ID>  (715) 
179570

>  <distance_score>  (715) 
0.399991

>  <rmsd(smina/fragmenstein)>  (715) 
0.317

>  <ref_pdb>  (715) 
Z3559a

>  <inspiration_score>  (715) 
None

$$$$
P125569
     RDKit          3D

 33 38  0  0  0  0  0  0  0  0999 V2000
   -7.9438    4.2273   -6.0408 O   0  0  0  0  0  0  0  0  0  0  0  0
   -8.3713    3.6035   -6.9953 C   0  0  0  0  0  0  0  0  0  0  0  0
   -9.0565    2.4298   -7.0057 N   0  0  0  0  0  0  0  0  0  0  0  0
   -9.3253    2.0033   -8.2721 C   0  0  0  0  0  0  0  0  0  0  0  0
   -9.9707    1.0323   -8.6055 O   0  0  0  0  0  0  0  0  0  0  0  0
   -8.7427    2.9893   -9.1854 C   0  0  0  0  0  0  0  0  0  0  0  0
   -8.6877    3.0316  -10.5717 C   0  0  0  0  0  0  0  0  0  0  0  0
   -8.0716    4.1441  -11.1581 C   0  0  0  0  0  0  0  0  0  0  0  0
   -7.9503    4.2284  -12.5490 N   0  0  0  0  0  0  0  0  0  0  0  0
   -7.2005    5.2588  -13.4345 C   0  0  0  0  0  0  0  0  0  0  0  0
   -6.6334    6.2389  -13.1418 O   0  0  0  0  0  0  0  0  0  0  0  0
   -7.2269    4.9191  -14.8837 C   0  0  0  0  0  0  0  0  0  0  0  0
   -8.3527    4.3903  -15.5316 C   0  0  0  0  0  0  0  0  0  0  0  0
   -8.3605    4.2297  -16.9254 C   0  0  0  0  0  0  0  0  0  0  0  0
   -9.6134    3.7656  -17.6353 C   0  0  0  0  0  0  0  0  0  0  0  0
   -9.7890    3.9854  -19.1190 C   0  0  0  0  0  0  0  0  0  0  0  0
   -9.5391    2.6038  -18.5963 C   0  0  0  0  0  0  0  0  0  0  0  0
   -7.2984    4.5487  -17.6982 N   0  0  0  0  0  0  0  0  0  0  0  0
   -6.2509    5.0682  -17.0481 C   0  0  0  0  0  0  0  0  0  0  0  0
   -6.1337    5.2802  -15.6893 C   0  0  0  0  0  0  0  0  0  0  0  0
   -4.8570    5.8686  -15.5500 C   0  0  0  0  0  0  0  0  0  0  0  0
   -4.2220    6.0338  -16.7173 N   0  0  0  0  0  0  0  0  0  0  0  0
   -5.1020    5.5451  -17.6260 N   0  0  0  0  0  0  0  0  0  0  0  0
   -4.8982    5.6012  -19.0717 C   0  0  0  0  0  0  0  0  0  0  0  0
   -3.5987    6.2179  -19.5284 C   0  0  0  0  0  0  0  0  0  0  0  0
   -3.5879    7.4894  -20.1230 C   0  0  0  0  0  0  0  0  0  0  0  0
   -2.3929    8.0525  -20.5749 C   0  0  0  0  0  0  0  0  0  0  0  0
   -1.1967    7.3520  -20.4382 C   0  0  0  0  0  0  0  0  0  0  0  0
   -1.1937    6.0909  -19.8467 C   0  0  0  0  0  0  0  0  0  0  0  0
   -2.3865    5.5256  -19.3940 C   0  0  0  0  0  0  0  0  0  0  0  0
   -7.5562    5.1783  -10.3445 C   0  0  0  0  0  0  0  0  0  0  0  0
   -7.6124    5.1071   -8.9476 C   0  0  0  0  0  0  0  0  0  0  0  0
   -8.2023    3.9903   -8.3976 C   0  0  0  0  0  0  0  0  0  0  0  0
  1  2  2  0
  2  3  1  0
  3  4  1  0
  4  5  2  0
  4  6  1  0
  6  7  2  0
  7  8  1  0
  8  9  1  0
  9 10  1  0
 10 11  2  0
 10 12  1  0
 12 13  2  0
 13 14  1  0
 14 15  1  0
 15 16  1  0
 16 17  1  0
 14 18  2  0
 18 19  1  0
 19 20  2  0
 20 21  1  0
 21 22  2  0
 22 23  1  0
 23 24  1  0
 24 25  1  0
 25 26  2  0
 26 27  1  0
 27 28  2  0
 28 29  1  0
 29 30  2  0
  8 31  2  0
 31 32  1  0
 32 33  2  0
 33  2  1  0
 33  6  1  0
 20 12  1  0
 30 25  1  0
 17 15  1  0
 23 19  1  0
M  END
>  <name>  (716) 
P125569

>  <alias>  (716) 
None

>  <smina_score_min>  (716) 
-9.178

>  <exports>  (716) 
['/opt/xchem-fragalysis-2/maxwin/BulkDock/OUTPUTS/openbind_xx01zvns2b_c2_elabs_1LOUTNY.sdf', '/opt/xchem-fragalysis-2/maxwin/BulkDock/OUTPUTS/openbind_xx01zvns2b_c2_elabs_1LSYIIV.sdf']

>  <tags>  (716) 
syndirella_placed,openbind_xx01zvns2b_c2_elabs,openbind_xx01zvns2b_c2_elabs_scored_6.2plus,syndirella_product,openbind_xx01zvns2b_c2_elabs_scored,openbind_xx01zvns2b_c2_elabs_scored_top80percent,BulkDock Fragalysis export

>  <subsites>  (716) 
1 - Z4590/B/203/1

>  <smiles>  (716) 
O=C1NC(=O)c2cc(NC(=O)c3cc(C4CC4)nc4c3cnn4Cc3ccccc3)ccc21

>  <HIPPO Pose ID>  (716) 
125569

>  <energy_score>  (716) 
-36.585422

>  <inchikey>  (716) 
MBEKZBYAJWSAII-UHFFFAOYSA-N

>  <gnina_score_min>  (716) 
6.253

>  <gnina_score>  (716) 
6.356

>  <ref_mols>  (716) 
Z3559a

>  <HIPPO Compound ID>  (716) 
179560

>  <distance_score>  (716) 
0.316334

>  <rmsd(smina/fragmenstein)>  (716) 
0.328

>  <ref_pdb>  (716) 
Z3559a

>  <inspiration_score>  (716) 
None

$$$$
P125570
     RDKit          3D

 33 38  0  0  0  0  0  0  0  0999 V2000
  -10.5629    2.5172   -5.3328 C   0  0  0  0  0  0  0  0  0  0  0  0
   -9.7816    1.8270   -6.4371 C   0  0  0  0  0  0  0  0  0  0  0  0
   -9.6416    2.7038   -7.5774 N   0  0  0  0  0  0  0  0  0  0  0  0
   -8.7540    3.8606   -7.3725 C   0  0  0  0  0  0  0  0  0  0  0  0
   -8.3274    4.2053   -8.7634 C   0  0  0  0  0  0  0  0  0  0  0  0
   -7.8053    5.3774   -9.2694 C   0  0  0  0  0  0  0  0  0  0  0  0
   -7.5479    5.4355  -10.6413 C   0  0  0  0  0  0  0  0  0  0  0  0
   -7.8043    4.3287  -11.4690 C   0  0  0  0  0  0  0  0  0  0  0  0
   -7.5791    4.3764  -12.8363 N   0  0  0  0  0  0  0  0  0  0  0  0
   -7.0333    5.5124  -13.7215 C   0  0  0  0  0  0  0  0  0  0  0  0
   -6.6144    6.5613  -13.4323 O   0  0  0  0  0  0  0  0  0  0  0  0
   -7.0582    5.1227  -15.1427 C   0  0  0  0  0  0  0  0  0  0  0  0
   -8.1897    4.5613  -15.7344 C   0  0  0  0  0  0  0  0  0  0  0  0
   -8.1922    4.2909  -17.1021 C   0  0  0  0  0  0  0  0  0  0  0  0
   -9.4642    3.7723  -17.7395 C   0  0  0  0  0  0  0  0  0  0  0  0
   -9.7305    3.9657  -19.2089 C   0  0  0  0  0  0  0  0  0  0  0  0
   -9.4109    2.5983  -18.6834 C   0  0  0  0  0  0  0  0  0  0  0  0
   -7.1170    4.5340  -17.8929 N   0  0  0  0  0  0  0  0  0  0  0  0
   -6.0398    5.0800  -17.2886 C   0  0  0  0  0  0  0  0  0  0  0  0
   -5.9466    5.3874  -15.9420 C   0  0  0  0  0  0  0  0  0  0  0  0
   -4.6572    5.9105  -15.7725 C   0  0  0  0  0  0  0  0  0  0  0  0
   -3.9527    5.9183  -16.9017 N   0  0  0  0  0  0  0  0  0  0  0  0
   -4.8102    5.4284  -17.8492 N   0  0  0  0  0  0  0  0  0  0  0  0
   -4.3633    5.3173  -19.2000 C   0  0  0  0  0  0  0  0  0  0  0  0
   -2.9968    5.5028  -19.4885 C   0  0  0  0  0  0  0  0  0  0  0  0
   -2.5167    5.3355  -20.7904 C   0  0  0  0  0  0  0  0  0  0  0  0
   -3.4020    5.0116  -21.8085 C   0  0  0  0  0  0  0  0  0  0  0  0
   -2.9473    4.8452  -23.0571 F   0  0  0  0  0  0  0  0  0  0  0  0
   -4.7567    4.8507  -21.5477 C   0  0  0  0  0  0  0  0  0  0  0  0
   -5.2397    4.9956  -20.2427 C   0  0  0  0  0  0  0  0  0  0  0  0
   -8.3114    3.1431  -10.9409 C   0  0  0  0  0  0  0  0  0  0  0  0
   -8.5706    3.1049   -9.5886 C   0  0  0  0  0  0  0  0  0  0  0  0
   -9.1484    1.9987   -8.7715 C   0  0  0  0  0  0  0  0  0  0  0  0
  1  2  1  0
  2  3  1  0
  3  4  1  0
  4  5  1  0
  5  6  2  0
  6  7  1  0
  7  8  2  0
  8  9  1  0
  9 10  1  0
 10 11  2  0
 10 12  1  0
 12 13  2  0
 13 14  1  0
 14 15  1  0
 15 16  1  0
 16 17  1  0
 14 18  2  0
 18 19  1  0
 19 20  2  0
 20 21  1  0
 21 22  2  0
 22 23  1  0
 23 24  1  0
 24 25  2  0
 25 26  1  0
 26 27  2  0
 27 28  1  0
 27 29  1  0
 29 30  2  0
  8 31  1  0
 31 32  2  0
 32 33  1  0
 33  3  1  0
 32  5  1  0
 20 12  1  0
 30 24  1  0
 17 15  1  0
 23 19  1  0
M  END
>  <name>  (717) 
P125570

>  <alias>  (717) 
None

>  <smina_score_min>  (717) 
-10.032

>  <exports>  (717) 
['/opt/xchem-fragalysis-2/maxwin/BulkDock/OUTPUTS/openbind_xx01zvns2b_c2_elabs_1LOUTNY.sdf', '/opt/xchem-fragalysis-2/maxwin/BulkDock/OUTPUTS/openbind_xx01zvns2b_c2_elabs_1LSYIIV.sdf']

>  <tags>  (717) 
syndirella_placed,openbind_xx01zvns2b_c2_elabs,openbind_xx01zvns2b_c2_elabs_scored_6.2plus,syndirella_product,openbind_xx01zvns2b_c2_elabs_scored,openbind_xx01zvns2b_c2_elabs_scored_top80percent,BulkDock Fragalysis export

>  <subsites>  (717) 
1 - Z4590/B/203/1

>  <smiles>  (717) 
CCN1Cc2ccc(NC(=O)c3cc(C4CC4)nc4c3cnn4-c3ccc(F)cc3)cc2C1

>  <HIPPO Pose ID>  (717) 
125570

>  <energy_score>  (717) 
-50.724142

>  <inchikey>  (717) 
IGLNYHUPVRILSN-UHFFFAOYSA-N

>  <gnina_score_min>  (717) 
6.517

>  <gnina_score>  (717) 
6.492

>  <ref_mols>  (717) 
Z3559a

>  <HIPPO Compound ID>  (717) 
179500

>  <distance_score>  (717) 
0.5049

>  <rmsd(smina/fragmenstein)>  (717) 
0.444

>  <ref_pdb>  (717) 
Z3559a

>  <inspiration_score>  (717) 
None

$$$$
P125571
     RDKit          3D

 33 38  0  0  0  0  0  0  0  0999 V2000
  -10.9269    3.1611   -5.5765 C   0  0  0  0  0  0  0  0  0  0  0  0
   -9.6172    2.4609   -5.8787 C   0  0  0  0  0  0  0  0  0  0  0  0
   -8.8726    2.9056   -7.0280 N   0  0  0  0  0  0  0  0  0  0  0  0
   -8.5425    4.3152   -7.1463 C   0  0  0  0  0  0  0  0  0  0  0  0
   -8.2559    4.4935   -8.5995 C   0  0  0  0  0  0  0  0  0  0  0  0
   -7.7313    5.5973   -9.2374 C   0  0  0  0  0  0  0  0  0  0  0  0
   -7.5735    5.5359  -10.6199 C   0  0  0  0  0  0  0  0  0  0  0  0
   -7.9468    4.3904  -11.3448 C   0  0  0  0  0  0  0  0  0  0  0  0
   -7.7830    4.3664  -12.7284 N   0  0  0  0  0  0  0  0  0  0  0  0
   -7.1702    5.4172  -13.6870 C   0  0  0  0  0  0  0  0  0  0  0  0
   -6.7778    6.4977  -13.4756 O   0  0  0  0  0  0  0  0  0  0  0  0
   -7.1695    4.9723  -15.0956 C   0  0  0  0  0  0  0  0  0  0  0  0
   -8.3034    4.4104  -15.6941 C   0  0  0  0  0  0  0  0  0  0  0  0
   -8.3318    4.1971  -17.0761 C   0  0  0  0  0  0  0  0  0  0  0  0
   -9.6061    3.7286  -17.7367 C   0  0  0  0  0  0  0  0  0  0  0  0
   -9.5724    2.5349  -18.6560 C   0  0  0  0  0  0  0  0  0  0  0  0
   -9.8137    3.9032  -19.2199 C   0  0  0  0  0  0  0  0  0  0  0  0
   -7.2789    4.4781  -17.8781 N   0  0  0  0  0  0  0  0  0  0  0  0
   -6.2235    5.0307  -17.2666 C   0  0  0  0  0  0  0  0  0  0  0  0
   -6.0875    5.3029  -15.9213 C   0  0  0  0  0  0  0  0  0  0  0  0
   -4.8201    5.9155  -15.8222 C   0  0  0  0  0  0  0  0  0  0  0  0
   -4.2050    6.0410  -17.0057 N   0  0  0  0  0  0  0  0  0  0  0  0
   -5.0902    5.5005  -17.8798 N   0  0  0  0  0  0  0  0  0  0  0  0
   -4.9267    5.5309  -19.3317 C   0  0  0  0  0  0  0  0  0  0  0  0
   -3.6231    6.0846  -19.8510 C   0  0  0  0  0  0  0  0  0  0  0  0
   -2.3969    5.4715  -19.5728 C   0  0  0  0  0  0  0  0  0  0  0  0
   -1.2417    6.0057  -20.1251 C   0  0  0  0  0  0  0  0  0  0  0  0
   -1.2243    7.0880  -20.9346 N   0  0  0  0  0  0  0  0  0  0  0  0
   -2.4147    7.6647  -21.1932 C   0  0  0  0  0  0  0  0  0  0  0  0
   -3.6219    7.2067  -20.6878 C   0  0  0  0  0  0  0  0  0  0  0  0
   -8.4899    3.2811  -10.6858 C   0  0  0  0  0  0  0  0  0  0  0  0
   -8.6350    3.3492   -9.3071 C   0  0  0  0  0  0  0  0  0  0  0  0
   -9.2061    2.3481   -8.3444 C   0  0  0  0  0  0  0  0  0  0  0  0
  1  2  1  0
  2  3  1  0
  3  4  1  0
  4  5  1  0
  5  6  2  0
  6  7  1  0
  7  8  2  0
  8  9  1  0
  9 10  1  0
 10 11  2  0
 10 12  1  0
 12 13  2  0
 13 14  1  0
 14 15  1  0
 15 16  1  0
 16 17  1  0
 14 18  2  0
 18 19  1  0
 19 20  2  0
 20 21  1  0
 21 22  2  0
 22 23  1  0
 23 24  1  0
 24 25  1  0
 25 26  2  0
 26 27  1  0
 27 28  2  0
 28 29  1  0
 29 30  2  0
  8 31  1  0
 31 32  2  0
 32 33  1  0
 33  3  1  0
 32  5  1  0
 20 12  1  0
 30 25  1  0
 17 15  1  0
 23 19  1  0
M  END
>  <name>  (718) 
P125571

>  <alias>  (718) 
None

>  <smina_score_min>  (718) 
-8.895

>  <exports>  (718) 
['/opt/xchem-fragalysis-2/maxwin/BulkDock/OUTPUTS/openbind_xx01zvns2b_c2_elabs_1LOUTNY.sdf', '/opt/xchem-fragalysis-2/maxwin/BulkDock/OUTPUTS/openbind_xx01zvns2b_c2_elabs_1LSYIIV.sdf']

>  <tags>  (718) 
syndirella_placed,openbind_xx01zvns2b_c2_elabs,openbind_xx01zvns2b_c2_elabs_scored_6.2plus,syndirella_product,openbind_xx01zvns2b_c2_elabs_scored,openbind_xx01zvns2b_c2_elabs_scored_top80percent,BulkDock Fragalysis export

>  <subsites>  (718) 
1 - Z4590/B/203/1

>  <smiles>  (718) 
CCN1Cc2ccc(NC(=O)c3cc(C4CC4)nc4c3cnn4Cc3ccncc3)cc2C1

>  <HIPPO Pose ID>  (718) 
125571

>  <energy_score>  (718) 
-35.651587

>  <inchikey>  (718) 
HPHHSBFNUUUXJZ-UHFFFAOYSA-N

>  <gnina_score_min>  (718) 
6.54

>  <gnina_score>  (718) 
6.429

>  <ref_mols>  (718) 
Z3559a

>  <HIPPO Compound ID>  (718) 
179991

>  <distance_score>  (718) 
0.450227

>  <rmsd(smina/fragmenstein)>  (718) 
0.457

>  <ref_pdb>  (718) 
Z3559a

>  <inspiration_score>  (718) 
None

$$$$
P125572
     RDKit          3D

 33 38  0  0  0  0  0  0  0  0999 V2000
  -10.1315    2.1923   -6.1051 C   0  0  0  0  0  0  0  0  0  0  0  0
   -9.3330    2.6848   -7.1976 N   0  0  0  0  0  0  0  0  0  0  0  0
   -8.6495    3.9558   -7.1394 C   0  0  0  0  0  0  0  0  0  0  0  0
   -8.2619    4.1837   -8.5603 C   0  0  0  0  0  0  0  0  0  0  0  0
   -7.6169    5.2582   -9.1364 C   0  0  0  0  0  0  0  0  0  0  0  0
   -7.4242    5.2417  -10.5232 C   0  0  0  0  0  0  0  0  0  0  0  0
   -7.8767    4.1683  -11.3171 C   0  0  0  0  0  0  0  0  0  0  0  0
   -7.7120    4.1952  -12.7014 N   0  0  0  0  0  0  0  0  0  0  0  0
   -7.0054    5.2314  -13.6105 C   0  0  0  0  0  0  0  0  0  0  0  0
   -6.5187    6.2618  -13.3489 O   0  0  0  0  0  0  0  0  0  0  0  0
   -7.0583    4.8709  -15.0505 C   0  0  0  0  0  0  0  0  0  0  0  0
   -8.2102    4.3489  -15.6554 C   0  0  0  0  0  0  0  0  0  0  0  0
   -8.2871    4.2357  -17.0493 C   0  0  0  0  0  0  0  0  0  0  0  0
   -9.5674    3.7577  -17.6950 C   0  0  0  0  0  0  0  0  0  0  0  0
   -9.5248    2.5856  -18.6435 C   0  0  0  0  0  0  0  0  0  0  0  0
   -9.8182    3.9585  -19.1685 C   0  0  0  0  0  0  0  0  0  0  0  0
   -7.2818    4.6246  -17.8672 N   0  0  0  0  0  0  0  0  0  0  0  0
   -6.1997    5.1183  -17.2523 C   0  0  0  0  0  0  0  0  0  0  0  0
   -6.0049    5.2586  -15.8923 C   0  0  0  0  0  0  0  0  0  0  0  0
   -4.7279    5.8534  -15.7883 C   0  0  0  0  0  0  0  0  0  0  0  0
   -4.1751    6.1260  -16.9785 N   0  0  0  0  0  0  0  0  0  0  0  0
   -5.1197    5.7039  -17.8615 N   0  0  0  0  0  0  0  0  0  0  0  0
   -5.1349    6.2300  -19.2179 C   0  0  0  0  0  0  0  0  0  0  0  0
   -4.3857    5.4071  -20.2213 C   0  0  0  0  0  0  0  0  0  0  0  0
   -3.0090    5.5636  -20.3951 C   0  0  0  0  0  0  0  0  0  0  0  0
   -2.3856    4.8399  -21.3972 C   0  0  0  0  0  0  0  0  0  0  0  0
   -3.0256    3.9763  -22.2120 N   0  0  0  0  0  0  0  0  0  0  0  0
   -4.3495    3.8205  -22.0109 C   0  0  0  0  0  0  0  0  0  0  0  0
   -5.0648    4.5040  -21.0435 C   0  0  0  0  0  0  0  0  0  0  0  0
   -8.5236    3.0838  -10.7253 C   0  0  0  0  0  0  0  0  0  0  0  0
   -8.6944    3.1205   -9.3515 C   0  0  0  0  0  0  0  0  0  0  0  0
   -9.4082    2.1781   -8.4833 C   0  0  0  0  0  0  0  0  0  0  0  0
  -10.0107    1.2011   -8.8758 O   0  0  0  0  0  0  0  0  0  0  0  0
  1  2  1  0
  2  3  1  0
  3  4  1  0
  4  5  2  0
  5  6  1  0
  6  7  2  0
  7  8  1  0
  8  9  1  0
  9 10  2  0
  9 11  1  0
 11 12  2  0
 12 13  1  0
 13 14  1  0
 14 15  1  0
 15 16  1  0
 13 17  2  0
 17 18  1  0
 18 19  2  0
 19 20  1  0
 20 21  2  0
 21 22  1  0
 22 23  1  0
 23 24  1  0
 24 25  2  0
 25 26  1  0
 26 27  2  0
 27 28  1  0
 28 29  2  0
  7 30  1  0
 30 31  2  0
 31 32  1  0
 32 33  2  0
 32  2  1  0
 31  4  1  0
 19 11  1  0
 29 24  1  0
 16 14  1  0
 22 18  1  0
M  END
>  <name>  (719) 
P125572

>  <alias>  (719) 
None

>  <smina_score_min>  (719) 
-9.82

>  <exports>  (719) 
['/opt/xchem-fragalysis-2/maxwin/BulkDock/OUTPUTS/openbind_xx01zvns2b_c2_elabs_1LOUTNY.sdf', '/opt/xchem-fragalysis-2/maxwin/BulkDock/OUTPUTS/openbind_xx01zvns2b_c2_elabs_1LSYIIV.sdf']

>  <tags>  (719) 
syndirella_placed,openbind_xx01zvns2b_c2_elabs,openbind_xx01zvns2b_c2_elabs_scored_6.2plus,syndirella_product,openbind_xx01zvns2b_c2_elabs_scored,openbind_xx01zvns2b_c2_elabs_scored_top80percent,BulkDock Fragalysis export

>  <subsites>  (719) 
1 - Z4590/B/203/1

>  <smiles>  (719) 
CN1Cc2ccc(NC(=O)c3cc(C4CC4)nc4c3cnn4Cc3ccncc3)cc2C1=O

>  <HIPPO Pose ID>  (719) 
125572

>  <energy_score>  (719) 
-46.984806

>  <inchikey>  (719) 
AIGCZADTRCKMOI-UHFFFAOYSA-N

>  <gnina_score_min>  (719) 
6.467

>  <gnina_score>  (719) 
6.453

>  <ref_mols>  (719) 
Z3559a

>  <HIPPO Compound ID>  (719) 
179992

>  <distance_score>  (719) 
0.417565

>  <rmsd(smina/fragmenstein)>  (719) 
0.287

>  <ref_pdb>  (719) 
Z3559a

>  <inspiration_score>  (719) 
None

$$$$
P125574
     RDKit          3D

 33 38  0  0  0  0  0  0  0  0999 V2000
  -10.0452    2.1127   -6.0839 C   0  0  0  0  0  0  0  0  0  0  0  0
   -9.3242    2.6717   -7.1973 N   0  0  0  0  0  0  0  0  0  0  0  0
   -8.6951    3.8816   -7.1695 C   0  0  0  0  0  0  0  0  0  0  0  0
   -8.5247    4.6533   -6.2424 O   0  0  0  0  0  0  0  0  0  0  0  0
   -8.2903    4.1636   -8.5447 C   0  0  0  0  0  0  0  0  0  0  0  0
   -7.6913    5.2833   -9.0786 C   0  0  0  0  0  0  0  0  0  0  0  0
   -7.4988    5.3041  -10.4637 C   0  0  0  0  0  0  0  0  0  0  0  0
   -7.9018    4.2230  -11.2780 C   0  0  0  0  0  0  0  0  0  0  0  0
   -7.6833    4.2651  -12.6554 N   0  0  0  0  0  0  0  0  0  0  0  0
   -7.1731    5.4161  -13.5584 C   0  0  0  0  0  0  0  0  0  0  0  0
   -6.7840    6.4821  -13.2792 O   0  0  0  0  0  0  0  0  0  0  0  0
   -7.1446    5.0435  -14.9938 C   0  0  0  0  0  0  0  0  0  0  0  0
   -8.1882    4.3665  -15.6373 C   0  0  0  0  0  0  0  0  0  0  0  0
   -8.1053    4.0967  -17.0094 C   0  0  0  0  0  0  0  0  0  0  0  0
   -9.1472    3.2420  -17.6760 C   0  0  0  0  0  0  0  0  0  0  0  0
   -9.1776    3.1373  -19.1781 C   0  0  0  0  0  0  0  0  0  0  0  0
  -10.2955    3.8264  -18.4591 C   0  0  0  0  0  0  0  0  0  0  0  0
   -7.0721    4.5096  -17.7761 N   0  0  0  0  0  0  0  0  0  0  0  0
   -6.1048    5.1647  -17.1257 C   0  0  0  0  0  0  0  0  0  0  0  0
   -6.0565    5.4543  -15.7776 C   0  0  0  0  0  0  0  0  0  0  0  0
   -4.8355    6.1438  -15.6218 C   0  0  0  0  0  0  0  0  0  0  0  0
   -4.1726    6.3033  -16.7737 N   0  0  0  0  0  0  0  0  0  0  0  0
   -4.9729    5.6964  -17.6861 N   0  0  0  0  0  0  0  0  0  0  0  0
   -4.7072    5.6915  -19.1232 C   0  0  0  0  0  0  0  0  0  0  0  0
   -3.3839    6.2833  -19.5166 C   0  0  0  0  0  0  0  0  0  0  0  0
   -3.1950    7.6522  -19.9113 C   0  0  0  0  0  0  0  0  0  0  0  0
   -1.8884    7.9381  -20.2370 C   0  0  0  0  0  0  0  0  0  0  0  0
   -0.8771    6.5720  -20.0811 S   0  0  0  0  0  0  0  0  0  0  0  0
   -2.1847    5.5935  -19.5702 C   0  0  0  0  0  0  0  0  0  0  0  0
   -8.5117    3.0997  -10.7094 C   0  0  0  0  0  0  0  0  0  0  0  0
   -8.6958    3.1061   -9.3363 C   0  0  0  0  0  0  0  0  0  0  0  0
   -9.3882    2.1598   -8.4643 C   0  0  0  0  0  0  0  0  0  0  0  0
   -9.9678    1.1708   -8.8638 O   0  0  0  0  0  0  0  0  0  0  0  0
  1  2  1  0
  2  3  1  0
  3  4  2  0
  3  5  1  0
  5  6  2  0
  6  7  1  0
  7  8  2  0
  8  9  1  0
  9 10  1  0
 10 11  2  0
 10 12  1  0
 12 13  2  0
 13 14  1  0
 14 15  1  0
 15 16  1  0
 16 17  1  0
 14 18  2  0
 18 19  1  0
 19 20  2  0
 20 21  1  0
 21 22  2  0
 22 23  1  0
 23 24  1  0
 24 25  1  0
 25 26  1  0
 26 27  2  0
 27 28  1  0
 28 29  1  0
  8 30  1  0
 30 31  2  0
 31 32  1  0
 32 33  2  0
 32  2  1  0
 31  5  1  0
 20 12  1  0
 29 25  2  0
 17 15  1  0
 23 19  1  0
M  END
>  <name>  (720) 
P125574

>  <alias>  (720) 
None

>  <smina_score_min>  (720) 
-8.896

>  <exports>  (720) 
['/opt/xchem-fragalysis-2/maxwin/BulkDock/OUTPUTS/openbind_xx01zvns2b_c2_elabs_1LOUTNY.sdf', '/opt/xchem-fragalysis-2/maxwin/BulkDock/OUTPUTS/openbind_xx01zvns2b_c2_elabs_1LSYIIV.sdf']

>  <tags>  (720) 
syndirella_placed,openbind_xx01zvns2b_c2_elabs,openbind_xx01zvns2b_c2_elabs_scored_6.2plus,syndirella_product,openbind_xx01zvns2b_c2_elabs_scored,openbind_xx01zvns2b_c2_elabs_scored_top80percent,BulkDock Fragalysis export

>  <subsites>  (720) 
1 - Z4590/B/203/1

>  <smiles>  (720) 
CN1C(=O)c2ccc(NC(=O)c3cc(C4CC4)nc4c3cnn4Cc3ccsc3)cc2C1=O

>  <HIPPO Pose ID>  (720) 
125574

>  <energy_score>  (720) 
-52.839324

>  <inchikey>  (720) 
YODGGCQOLKBGFF-UHFFFAOYSA-N

>  <gnina_score_min>  (720) 
6.406

>  <gnina_score>  (720) 
6.43

>  <ref_mols>  (720) 
Z3559a

>  <HIPPO Compound ID>  (720) 
180018

>  <distance_score>  (720) 
0.492712

>  <rmsd(smina/fragmenstein)>  (720) 
0.466

>  <ref_pdb>  (720) 
Z3559a

>  <inspiration_score>  (720) 
None

$$$$
P125576
     RDKit          3D

 33 38  0  0  0  0  0  0  0  0999 V2000
  -10.8300    2.9523   -5.4611 C   0  0  0  0  0  0  0  0  0  0  0  0
   -9.6047    2.2914   -6.0595 C   0  0  0  0  0  0  0  0  0  0  0  0
   -9.1981    2.9125   -7.2922 N   0  0  0  0  0  0  0  0  0  0  0  0
   -9.1521    2.1837   -8.5509 C   0  0  0  0  0  0  0  0  0  0  0  0
   -8.5695    3.2011   -9.4755 C   0  0  0  0  0  0  0  0  0  0  0  0
   -8.3664    3.1528  -10.8445 C   0  0  0  0  0  0  0  0  0  0  0  0
   -7.7838    4.2679  -11.4603 C   0  0  0  0  0  0  0  0  0  0  0  0
   -7.5585    4.2491  -12.8329 N   0  0  0  0  0  0  0  0  0  0  0  0
   -6.8665    5.2827  -13.7511 C   0  0  0  0  0  0  0  0  0  0  0  0
   -6.3094    6.2753  -13.4886 O   0  0  0  0  0  0  0  0  0  0  0  0
   -6.9792    4.9335  -15.1868 C   0  0  0  0  0  0  0  0  0  0  0  0
   -8.1460    4.3976  -15.7459 C   0  0  0  0  0  0  0  0  0  0  0  0
   -8.2643    4.2703  -17.1346 C   0  0  0  0  0  0  0  0  0  0  0  0
   -9.5571    3.7626  -17.7282 C   0  0  0  0  0  0  0  0  0  0  0  0
   -9.5267    2.5831  -18.6672 C   0  0  0  0  0  0  0  0  0  0  0  0
   -9.8655    3.9464  -19.1916 C   0  0  0  0  0  0  0  0  0  0  0  0
   -7.2909    4.6672  -17.9881 N   0  0  0  0  0  0  0  0  0  0  0  0
   -6.1962    5.1816  -17.4140 C   0  0  0  0  0  0  0  0  0  0  0  0
   -5.9545    5.3166  -16.0614 C   0  0  0  0  0  0  0  0  0  0  0  0
   -4.6646    5.8833  -15.9960 C   0  0  0  0  0  0  0  0  0  0  0  0
   -4.1339    6.1129  -17.2036 N   0  0  0  0  0  0  0  0  0  0  0  0
   -5.1339    5.7688  -18.0541 N   0  0  0  0  0  0  0  0  0  0  0  0
   -5.1060    6.1628  -19.4628 C   0  0  0  0  0  0  0  0  0  0  0  0
   -4.5487    5.0593  -20.3582 C   0  0  0  0  0  0  0  0  0  0  0  0
   -4.5991    5.3973  -21.8507 C   0  0  0  0  0  0  0  0  0  0  0  0
   -4.6559    6.8928  -22.1475 C   0  0  0  0  0  0  0  0  0  0  0  0
   -3.8609    7.6905  -21.1283 C   0  0  0  0  0  0  0  0  0  0  0  0
   -4.4031    7.5179  -19.7077 C   0  0  0  0  0  0  0  0  0  0  0  0
   -7.4298    5.4054  -10.7070 C   0  0  0  0  0  0  0  0  0  0  0  0
   -7.6444    5.4511   -9.3322 C   0  0  0  0  0  0  0  0  0  0  0  0
   -8.2079    4.3376   -8.7520 C   0  0  0  0  0  0  0  0  0  0  0  0
   -8.5601    4.1323   -7.3488 C   0  0  0  0  0  0  0  0  0  0  0  0
   -8.3251    4.9211   -6.4517 O   0  0  0  0  0  0  0  0  0  0  0  0
  1  2  1  0
  2  3  1  0
  3  4  1  0
  4  5  1  0
  5  6  2  0
  6  7  1  0
  7  8  1  0
  8  9  1  0
  9 10  2  0
  9 11  1  0
 11 12  2  0
 12 13  1  0
 13 14  1  0
 14 15  1  0
 15 16  1  0
 13 17  2  0
 17 18  1  0
 18 19  2  0
 19 20  1  0
 20 21  2  0
 21 22  1  0
 22 23  1  0
 23 24  1  0
 24 25  1  0
 25 26  1  0
 26 27  1  0
 27 28  1  0
  7 29  2  0
 29 30  1  0
 30 31  2  0
 31 32  1  0
 32 33  2  0
 32  3  1  0
 31  5  1  0
 19 11  1  0
 28 23  1  0
 16 14  1  0
 22 18  1  0
M  END
>  <name>  (721) 
P125576

>  <alias>  (721) 
None

>  <smina_score_min>  (721) 
-9.729

>  <exports>  (721) 
['/opt/xchem-fragalysis-2/maxwin/BulkDock/OUTPUTS/openbind_xx01zvns2b_c2_elabs_1LOUTNY.sdf', '/opt/xchem-fragalysis-2/maxwin/BulkDock/OUTPUTS/openbind_xx01zvns2b_c2_elabs_1LSYIIV.sdf']

>  <tags>  (721) 
syndirella_placed,openbind_xx01zvns2b_c2_elabs,openbind_xx01zvns2b_c2_elabs_scored_6.2plus,syndirella_product,openbind_xx01zvns2b_c2_elabs_scored,openbind_xx01zvns2b_c2_elabs_scored_top80percent,BulkDock Fragalysis export

>  <subsites>  (721) 
1 - Z4590/B/203/1

>  <smiles>  (721) 
CCN1Cc2cc(NC(=O)c3cc(C4CC4)nc4c3cnn4C3CCCCC3)ccc2C1=O

>  <HIPPO Pose ID>  (721) 
125576

>  <energy_score>  (721) 
-45.201383

>  <inchikey>  (721) 
LOTZRYVCNCBCES-UHFFFAOYSA-N

>  <gnina_score_min>  (721) 
6.592

>  <gnina_score>  (721) 
6.564

>  <ref_mols>  (721) 
Z3559a

>  <HIPPO Compound ID>  (721) 
180028

>  <distance_score>  (721) 
0.5149

>  <rmsd(smina/fragmenstein)>  (721) 
0.275

>  <ref_pdb>  (721) 
Z3559a

>  <inspiration_score>  (721) 
None

$$$$
P125577
     RDKit          3D

 33 38  0  0  0  0  0  0  0  0999 V2000
   -1.8047    4.9237  -22.6892 C   0  0  0  0  0  0  0  0  0  0  0  0
   -3.0235    4.8704  -21.8613 C   0  0  0  0  0  0  0  0  0  0  0  0
   -4.2202    4.1981  -21.9653 C   0  0  0  0  0  0  0  0  0  0  0  0
   -5.0136    4.6314  -20.8747 C   0  0  0  0  0  0  0  0  0  0  0  0
   -4.2434    5.5194  -20.1522 C   0  0  0  0  0  0  0  0  0  0  0  0
   -4.5078    6.4204  -19.0100 C   0  0  0  0  0  0  0  0  0  0  0  0
   -4.6994    5.7859  -17.7096 N   0  0  0  0  0  0  0  0  0  0  0  0
   -3.9138    6.1576  -16.6607 N   0  0  0  0  0  0  0  0  0  0  0  0
   -4.6675    5.8741  -15.5906 C   0  0  0  0  0  0  0  0  0  0  0  0
   -5.9162    5.3070  -15.9246 C   0  0  0  0  0  0  0  0  0  0  0  0
   -7.1120    4.9317  -15.2835 C   0  0  0  0  0  0  0  0  0  0  0  0
   -7.2789    5.3544  -13.8651 C   0  0  0  0  0  0  0  0  0  0  0  0
   -6.8732    6.4234  -13.6196 O   0  0  0  0  0  0  0  0  0  0  0  0
   -7.9047    4.2799  -12.9388 N   0  0  0  0  0  0  0  0  0  0  0  0
   -8.0697    4.2617  -11.5357 C   0  0  0  0  0  0  0  0  0  0  0  0
   -8.6283    3.1285  -10.9272 C   0  0  0  0  0  0  0  0  0  0  0  0
   -8.7576    3.1254   -9.5396 C   0  0  0  0  0  0  0  0  0  0  0  0
   -8.3257    4.1767   -8.7326 C   0  0  0  0  0  0  0  0  0  0  0  0
   -7.7857    5.3027   -9.3109 C   0  0  0  0  0  0  0  0  0  0  0  0
   -7.6729    5.3403  -10.7062 C   0  0  0  0  0  0  0  0  0  0  0  0
   -7.1483    6.4610  -11.2147 F   0  0  0  0  0  0  0  0  0  0  0  0
   -8.5658    3.8660   -7.2949 C   0  0  0  0  0  0  0  0  0  0  0  0
   -9.2341    2.5986   -7.3577 N   0  0  0  0  0  0  0  0  0  0  0  0
   -9.3712    2.1314   -8.6472 C   0  0  0  0  0  0  0  0  0  0  0  0
   -9.9433    1.1189   -8.9840 O   0  0  0  0  0  0  0  0  0  0  0  0
   -8.1423    4.4117  -16.0871 C   0  0  0  0  0  0  0  0  0  0  0  0
   -7.9635    4.3362  -17.4844 C   0  0  0  0  0  0  0  0  0  0  0  0
   -8.9859    3.8616  -18.4844 C   0  0  0  0  0  0  0  0  0  0  0  0
  -10.4418    3.6836  -18.2224 C   0  0  0  0  0  0  0  0  0  0  0  0
   -9.5432    2.4780  -18.3532 C   0  0  0  0  0  0  0  0  0  0  0  0
   -6.8396    4.7595  -18.0944 N   0  0  0  0  0  0  0  0  0  0  0  0
   -5.8743    5.2105  -17.2982 C   0  0  0  0  0  0  0  0  0  0  0  0
   -3.0279    5.6663  -20.7580 O   0  0  0  0  0  0  0  0  0  0  0  0
  1  2  1  0
  2  3  2  0
  3  4  1  0
  4  5  2  0
  5  6  1  0
  6  7  1  0
  7  8  1  0
  8  9  2  0
  9 10  1  0
 10 11  2  0
 11 12  1  0
 12 13  2  0
 12 14  1  0
 14 15  1  0
 15 16  2  0
 16 17  1  0
 17 18  2  0
 18 19  1  0
 19 20  2  0
 20 21  1  0
 18 22  1  0
 22 23  1  0
 23 24  1  0
 24 25  2  0
 11 26  1  0
 26 27  2  0
 27 28  1  0
 28 29  1  0
 29 30  1  0
 27 31  1  0
 31 32  2  0
  5 33  1  0
 33  2  1  0
 32  7  1  0
 32 10  1  0
 20 15  1  0
 30 28  1  0
 24 17  1  0
M  END
>  <name>  (722) 
P125577

>  <alias>  (722) 
None

>  <smina_score_min>  (722) 
-9.119

>  <exports>  (722) 
['/opt/xchem-fragalysis-2/maxwin/BulkDock/OUTPUTS/openbind_xx01zvns2b_c2_elabs_1LOUTNY.sdf', '/opt/xchem-fragalysis-2/maxwin/BulkDock/OUTPUTS/openbind_xx01zvns2b_c2_elabs_1LSYIIV.sdf']

>  <tags>  (722) 
syndirella_placed,openbind_xx01zvns2b_c2_elabs,openbind_xx01zvns2b_c2_elabs_scored_6.2plus,syndirella_product,openbind_xx01zvns2b_c2_elabs_scored,openbind_xx01zvns2b_c2_elabs_scored_top80percent,BulkDock Fragalysis export

>  <subsites>  (722) 
1 - Z4590/B/203/1

>  <smiles>  (722) 
Cc1ccc(Cn2ncc3c(C(=O)Nc4cc5c(cc4F)CNC5=O)cc(C4CC4)nc32)o1

>  <HIPPO Pose ID>  (722) 
125577

>  <energy_score>  (722) 
-27.390527

>  <inchikey>  (722) 
SCIXLDRPXZCQDV-UHFFFAOYSA-N

>  <gnina_score_min>  (722) 
6.393

>  <gnina_score>  (722) 
6.621

>  <ref_mols>  (722) 
Z3559a

>  <HIPPO Compound ID>  (722) 
179566

>  <distance_score>  (722) 
0.611028

>  <rmsd(smina/fragmenstein)>  (722) 
0.62

>  <ref_pdb>  (722) 
Z3559a

>  <inspiration_score>  (722) 
None

$$$$
P125579
     RDKit          3D

 33 38  0  0  0  0  0  0  0  0999 V2000
   -1.1579    5.6184  -22.0521 C   0  0  0  0  0  0  0  0  0  0  0  0
   -1.7000    5.5887  -20.6813 C   0  0  0  0  0  0  0  0  0  0  0  0
   -1.1199    5.4910  -19.4377 C   0  0  0  0  0  0  0  0  0  0  0  0
   -2.1771    5.4901  -18.5024 C   0  0  0  0  0  0  0  0  0  0  0  0
   -3.3462    5.6161  -19.2257 C   0  0  0  0  0  0  0  0  0  0  0  0
   -4.7916    5.7111  -18.9003 C   0  0  0  0  0  0  0  0  0  0  0  0
   -5.1095    5.6254  -17.4783 N   0  0  0  0  0  0  0  0  0  0  0  0
   -4.4053    6.2993  -16.5301 N   0  0  0  0  0  0  0  0  0  0  0  0
   -5.1091    6.0905  -15.4111 C   0  0  0  0  0  0  0  0  0  0  0  0
   -6.2951    5.3583  -15.6323 C   0  0  0  0  0  0  0  0  0  0  0  0
   -7.4236    4.9331  -14.9108 C   0  0  0  0  0  0  0  0  0  0  0  0
   -7.5366    5.3325  -13.4842 C   0  0  0  0  0  0  0  0  0  0  0  0
   -7.1740    6.4115  -13.2174 O   0  0  0  0  0  0  0  0  0  0  0  0
   -8.0693    4.1975  -12.5723 N   0  0  0  0  0  0  0  0  0  0  0  0
   -8.1728    4.1247  -11.1795 C   0  0  0  0  0  0  0  0  0  0  0  0
   -7.6766    5.1811  -10.3816 C   0  0  0  0  0  0  0  0  0  0  0  0
   -7.7023    5.1170   -8.9832 C   0  0  0  0  0  0  0  0  0  0  0  0
   -8.2478    3.9868   -8.4150 C   0  0  0  0  0  0  0  0  0  0  0  0
   -8.7709    2.9643   -9.1868 C   0  0  0  0  0  0  0  0  0  0  0  0
   -8.7352    2.9948  -10.5740 C   0  0  0  0  0  0  0  0  0  0  0  0
   -9.3256    1.9772   -8.2576 C   0  0  0  0  0  0  0  0  0  0  0  0
   -9.9700    0.9997   -8.5738 O   0  0  0  0  0  0  0  0  0  0  0  0
   -9.0447    2.4174   -6.9988 N   0  0  0  0  0  0  0  0  0  0  0  0
   -8.3906    3.6088   -7.0072 C   0  0  0  0  0  0  0  0  0  0  0  0
   -7.9734    4.2543   -6.0628 O   0  0  0  0  0  0  0  0  0  0  0  0
   -8.4334    4.2698  -15.6218 C   0  0  0  0  0  0  0  0  0  0  0  0
   -8.2779    4.0272  -16.9927 C   0  0  0  0  0  0  0  0  0  0  0  0
   -9.3252    3.3085  -17.8028 C   0  0  0  0  0  0  0  0  0  0  0  0
   -9.5217    3.7706  -19.2283 C   0  0  0  0  0  0  0  0  0  0  0  0
  -10.6182    3.9554  -18.2364 C   0  0  0  0  0  0  0  0  0  0  0  0
   -7.1813    4.4088  -17.6836 N   0  0  0  0  0  0  0  0  0  0  0  0
   -6.2565    5.0657  -16.9795 C   0  0  0  0  0  0  0  0  0  0  0  0
   -3.0528    5.6676  -20.5616 O   0  0  0  0  0  0  0  0  0  0  0  0
  1  2  1  0
  2  3  2  0
  3  4  1  0
  4  5  2  0
  5  6  1  0
  6  7  1  0
  7  8  1  0
  8  9  2  0
  9 10  1  0
 10 11  2  0
 11 12  1  0
 12 13  2  0
 12 14  1  0
 14 15  1  0
 15 16  2  0
 16 17  1  0
 17 18  2  0
 18 19  1  0
 19 20  2  0
 19 21  1  0
 21 22  2  0
 21 23  1  0
 23 24  1  0
 24 25  2  0
 11 26  1  0
 26 27  2  0
 27 28  1  0
 28 29  1  0
 29 30  1  0
 27 31  1  0
 31 32  2  0
  5 33  1  0
 33  2  1  0
 32  7  1  0
 32 10  1  0
 20 15  1  0
 30 28  1  0
 24 18  1  0
M  END
>  <name>  (723) 
P125579

>  <alias>  (723) 
None

>  <smina_score_min>  (723) 
-9.309

>  <exports>  (723) 
['/opt/xchem-fragalysis-2/maxwin/BulkDock/OUTPUTS/openbind_xx01zvns2b_c2_elabs_1LOUTNY.sdf', '/opt/xchem-fragalysis-2/maxwin/BulkDock/OUTPUTS/openbind_xx01zvns2b_c2_elabs_1LSYIIV.sdf']

>  <tags>  (723) 
syndirella_placed,openbind_xx01zvns2b_c2_elabs,openbind_xx01zvns2b_c2_elabs_scored_6.2plus,syndirella_product,openbind_xx01zvns2b_c2_elabs_scored,openbind_xx01zvns2b_c2_elabs_scored_top80percent,BulkDock Fragalysis export

>  <subsites>  (723) 
1 - Z4590/B/203/1

>  <smiles>  (723) 
Cc1ccc(Cn2ncc3c(C(=O)Nc4ccc5c(c4)C(=O)NC5=O)cc(C4CC4)nc32)o1

>  <HIPPO Pose ID>  (723) 
125579

>  <energy_score>  (723) 
-47.270155

>  <inchikey>  (723) 
XWMOBIKLXJPROM-UHFFFAOYSA-N

>  <gnina_score_min>  (723) 
6.45

>  <gnina_score>  (723) 
6.477

>  <ref_mols>  (723) 
Z3559a

>  <HIPPO Compound ID>  (723) 
179568

>  <distance_score>  (723) 
0.514498

>  <rmsd(smina/fragmenstein)>  (723) 
1.187

>  <ref_pdb>  (723) 
Z3559a

>  <inspiration_score>  (723) 
None

$$$$
P125583
     RDKit          3D

 33 38  0  0  0  0  0  0  0  0999 V2000
  -10.8694    2.9851   -5.4610 C   0  0  0  0  0  0  0  0  0  0  0  0
   -9.6160    2.3241   -5.9969 C   0  0  0  0  0  0  0  0  0  0  0  0
   -9.1645    2.9239   -7.2235 N   0  0  0  0  0  0  0  0  0  0  0  0
   -9.1763    2.2151   -8.4946 C   0  0  0  0  0  0  0  0  0  0  0  0
   -8.5942    3.2328   -9.4189 C   0  0  0  0  0  0  0  0  0  0  0  0
   -8.4395    3.2051  -10.7944 C   0  0  0  0  0  0  0  0  0  0  0  0
   -7.8794    4.3302  -11.4134 C   0  0  0  0  0  0  0  0  0  0  0  0
   -7.7306    4.3408  -12.7957 N   0  0  0  0  0  0  0  0  0  0  0  0
   -7.1193    5.4090  -13.7317 C   0  0  0  0  0  0  0  0  0  0  0  0
   -6.7154    6.4794  -13.4969 O   0  0  0  0  0  0  0  0  0  0  0  0
   -7.1376    4.9876  -15.1458 C   0  0  0  0  0  0  0  0  0  0  0  0
   -8.2753    4.4283  -15.7382 C   0  0  0  0  0  0  0  0  0  0  0  0
   -8.3099    4.2148  -17.1192 C   0  0  0  0  0  0  0  0  0  0  0  0
   -9.5876    3.7365  -17.7661 C   0  0  0  0  0  0  0  0  0  0  0  0
   -9.5589    2.5307  -18.6690 C   0  0  0  0  0  0  0  0  0  0  0  0
   -9.8042    3.8918  -19.2492 C   0  0  0  0  0  0  0  0  0  0  0  0
   -7.2618    4.5013  -17.9267 N   0  0  0  0  0  0  0  0  0  0  0  0
   -6.2014    5.0499  -17.3188 C   0  0  0  0  0  0  0  0  0  0  0  0
   -6.0588    5.3164  -15.9729 C   0  0  0  0  0  0  0  0  0  0  0  0
   -4.7875    5.9176  -15.8707 C   0  0  0  0  0  0  0  0  0  0  0  0
   -4.1726    6.0412  -17.0531 N   0  0  0  0  0  0  0  0  0  0  0  0
   -5.0658    5.5156  -17.9309 N   0  0  0  0  0  0  0  0  0  0  0  0
   -4.8935    5.5444  -19.3819 C   0  0  0  0  0  0  0  0  0  0  0  0
   -3.5933    6.1274  -19.8586 C   0  0  0  0  0  0  0  0  0  0  0  0
   -3.4706    7.4117  -20.4920 C   0  0  0  0  0  0  0  0  0  0  0  0
   -2.1760    7.7060  -20.8561 C   0  0  0  0  0  0  0  0  0  0  0  0
   -1.0964    6.4474  -20.4516 S   0  0  0  0  0  0  0  0  0  0  0  0
   -2.3586    5.5050  -19.7842 C   0  0  0  0  0  0  0  0  0  0  0  0
   -7.4821    5.4494  -10.6551 C   0  0  0  0  0  0  0  0  0  0  0  0
   -7.6397    5.4709   -9.2722 C   0  0  0  0  0  0  0  0  0  0  0  0
   -8.1940    4.3535   -8.6905 C   0  0  0  0  0  0  0  0  0  0  0  0
   -8.5154    4.1368   -7.2815 C   0  0  0  0  0  0  0  0  0  0  0  0
   -8.2600    4.9143   -6.3802 O   0  0  0  0  0  0  0  0  0  0  0  0
  1  2  1  0
  2  3  1  0
  3  4  1  0
  4  5  1  0
  5  6  2  0
  6  7  1  0
  7  8  1  0
  8  9  1  0
  9 10  2  0
  9 11  1  0
 11 12  2  0
 12 13  1  0
 13 14  1  0
 14 15  1  0
 15 16  1  0
 13 17  2  0
 17 18  1  0
 18 19  2  0
 19 20  1  0
 20 21  2  0
 21 22  1  0
 22 23  1  0
 23 24  1  0
 24 25  1  0
 25 26  2  0
 26 27  1  0
 27 28  1  0
  7 29  2  0
 29 30  1  0
 30 31  2  0
 31 32  1  0
 32 33  2  0
 32  3  1  0
 31  5  1  0
 19 11  1  0
 28 24  2  0
 16 14  1  0
 22 18  1  0
M  END
>  <name>  (724) 
P125583

>  <alias>  (724) 
None

>  <smina_score_min>  (724) 
-9.105

>  <exports>  (724) 
['/opt/xchem-fragalysis-2/maxwin/BulkDock/OUTPUTS/openbind_xx01zvns2b_c2_elabs_1LOUTNY.sdf', '/opt/xchem-fragalysis-2/maxwin/BulkDock/OUTPUTS/openbind_xx01zvns2b_c2_elabs_1LSYIIV.sdf']

>  <tags>  (724) 
syndirella_placed,openbind_xx01zvns2b_c2_elabs,openbind_xx01zvns2b_c2_elabs_scored_6.2plus,syndirella_product,openbind_xx01zvns2b_c2_elabs_scored,openbind_xx01zvns2b_c2_elabs_scored_top80percent,BulkDock Fragalysis export

>  <subsites>  (724) 
1 - Z4590/B/203/1

>  <smiles>  (724) 
CCN1Cc2cc(NC(=O)c3cc(C4CC4)nc4c3cnn4Cc3ccsc3)ccc2C1=O

>  <HIPPO Pose ID>  (724) 
125583

>  <energy_score>  (724) 
-49.913243

>  <inchikey>  (724) 
PKCOIAGYOSEWJN-UHFFFAOYSA-N

>  <gnina_score_min>  (724) 
6.543

>  <gnina_score>  (724) 
6.452

>  <ref_mols>  (724) 
Z3559a

>  <HIPPO Compound ID>  (724) 
180050

>  <distance_score>  (724) 
0.454269

>  <rmsd(smina/fragmenstein)>  (724) 
0.256

>  <ref_pdb>  (724) 
Z3559a

>  <inspiration_score>  (724) 
None

$$$$
P125584
     RDKit          3D

 33 38  0  0  0  0  0  0  0  0999 V2000
   -9.9986    2.5049   -5.9166 C   0  0  0  0  0  0  0  0  0  0  0  0
   -8.8909    2.9040   -6.7679 N   0  0  0  0  0  0  0  0  0  0  0  0
   -9.0267    2.3189   -8.1284 C   0  0  0  0  0  0  0  0  0  0  0  0
   -8.6418    3.4043   -9.0800 C   0  0  0  0  0  0  0  0  0  0  0  0
   -8.4897    3.3328  -10.4638 C   0  0  0  0  0  0  0  0  0  0  0  0
   -8.0985    4.4860  -11.1499 C   0  0  0  0  0  0  0  0  0  0  0  0
   -7.9138    4.4471  -12.5354 N   0  0  0  0  0  0  0  0  0  0  0  0
   -7.2981    5.4929  -13.4978 C   0  0  0  0  0  0  0  0  0  0  0  0
   -6.9201    6.5800  -13.2938 O   0  0  0  0  0  0  0  0  0  0  0  0
   -7.2404    5.0184  -14.9014 C   0  0  0  0  0  0  0  0  0  0  0  0
   -8.3469    4.4401  -15.5378 C   0  0  0  0  0  0  0  0  0  0  0  0
   -8.3298    4.2215  -16.9227 C   0  0  0  0  0  0  0  0  0  0  0  0
   -9.5805    3.7475  -17.6313 C   0  0  0  0  0  0  0  0  0  0  0  0
   -9.7626    3.9769  -19.1128 C   0  0  0  0  0  0  0  0  0  0  0  0
   -9.5057    2.5927  -18.5997 C   0  0  0  0  0  0  0  0  0  0  0  0
   -7.2526    4.5081  -17.6907 N   0  0  0  0  0  0  0  0  0  0  0  0
   -6.2206    5.0664  -17.0447 C   0  0  0  0  0  0  0  0  0  0  0  0
   -6.1328    5.3462  -15.6954 C   0  0  0  0  0  0  0  0  0  0  0  0
   -4.8735    5.9674  -15.5565 C   0  0  0  0  0  0  0  0  0  0  0  0
   -4.2183    6.0898  -16.7178 N   0  0  0  0  0  0  0  0  0  0  0  0
   -5.0694    5.5404  -17.6208 N   0  0  0  0  0  0  0  0  0  0  0  0
   -4.8537    5.5799  -19.0662 C   0  0  0  0  0  0  0  0  0  0  0  0
   -3.4993    6.0696  -19.4922 C   0  0  0  0  0  0  0  0  0  0  0  0
   -2.2756    5.3272  -19.3777 C   0  0  0  0  0  0  0  0  0  0  0  0
   -1.1876    6.0118  -19.8719 C   0  0  0  0  0  0  0  0  0  0  0  0
   -1.6189    7.5459  -20.4819 S   0  0  0  0  0  0  0  0  0  0  0  0
   -3.2627    7.3000  -20.0814 C   0  0  0  0  0  0  0  0  0  0  0  0
   -7.8928    5.6807  -10.4416 C   0  0  0  0  0  0  0  0  0  0  0  0
   -8.0635    5.7403   -9.0535 C   0  0  0  0  0  0  0  0  0  0  0  0
   -8.4364    4.5909   -8.3764 C   0  0  0  0  0  0  0  0  0  0  0  0
   -8.5814    4.3531   -6.8880 C   0  0  0  0  0  0  0  0  0  0  0  0
   -9.5646    5.3076   -6.1809 C   0  0  0  0  0  0  0  0  0  0  0  0
   -7.2115    4.6236   -6.2333 C   0  0  0  0  0  0  0  0  0  0  0  0
  1  2  1  0
  2  3  1  0
  3  4  1  0
  4  5  2  0
  5  6  1  0
  6  7  1  0
  7  8  1  0
  8  9  2  0
  8 10  1  0
 10 11  2  0
 11 12  1  0
 12 13  1  0
 13 14  1  0
 14 15  1  0
 12 16  2  0
 16 17  1  0
 17 18  2  0
 18 19  1  0
 19 20  2  0
 20 21  1  0
 21 22  1  0
 22 23  1  0
 23 24  1  0
 24 25  2  0
 25 26  1  0
 26 27  1  0
  6 28  2  0
 28 29  1  0
 29 30  2  0
 30 31  1  0
 31 32  1  0
 31 33  1  0
 31  2  1  0
 30  4  1  0
 18 10  1  0
 27 23  2  0
 15 13  1  0
 21 17  1  0
M  END
>  <name>  (725) 
P125584

>  <alias>  (725) 
None

>  <smina_score_min>  (725) 
-8.864

>  <exports>  (725) 
['/opt/xchem-fragalysis-2/maxwin/BulkDock/OUTPUTS/openbind_xx01zvns2b_c2_elabs_1LOUTNY.sdf', '/opt/xchem-fragalysis-2/maxwin/BulkDock/OUTPUTS/openbind_xx01zvns2b_c2_elabs_1LSYIIV.sdf']

>  <tags>  (725) 
syndirella_placed,openbind_xx01zvns2b_c2_elabs,openbind_xx01zvns2b_c2_elabs_scored_6.2plus,syndirella_product,openbind_xx01zvns2b_c2_elabs_scored,openbind_xx01zvns2b_c2_elabs_scored_top80percent,BulkDock Fragalysis export

>  <subsites>  (725) 
1 - Z4590/B/203/1

>  <smiles>  (725) 
CN1Cc2cc(NC(=O)c3cc(C4CC4)nc4c3cnn4Cc3ccsc3)ccc2C1(C)C

>  <HIPPO Pose ID>  (725) 
125584

>  <energy_score>  (725) 
-67.619129

>  <inchikey>  (725) 
RXMMUEZAEGROAU-UHFFFAOYSA-N

>  <gnina_score_min>  (725) 
6.387

>  <gnina_score>  (725) 
6.494

>  <ref_mols>  (725) 
Z3559a

>  <HIPPO Compound ID>  (725) 
180047

>  <distance_score>  (725) 
0.47532

>  <rmsd(smina/fragmenstein)>  (725) 
0.824

>  <ref_pdb>  (725) 
Z3559a

>  <inspiration_score>  (725) 
None

$$$$
P125585
     RDKit          3D

 33 38  0  0  0  0  0  0  0  0999 V2000
  -10.6929    2.6547   -5.3580 C   0  0  0  0  0  0  0  0  0  0  0  0
   -9.8954    1.8953   -6.3946 C   0  0  0  0  0  0  0  0  0  0  0  0
   -9.4726    2.7312   -7.4863 N   0  0  0  0  0  0  0  0  0  0  0  0
   -8.6542    3.9135   -7.3106 C   0  0  0  0  0  0  0  0  0  0  0  0
   -8.2733    4.2443   -8.7130 C   0  0  0  0  0  0  0  0  0  0  0  0
   -7.6119    5.3384   -9.2278 C   0  0  0  0  0  0  0  0  0  0  0  0
   -7.4024    5.3829  -10.6125 C   0  0  0  0  0  0  0  0  0  0  0  0
   -7.8378    4.3384  -11.4524 C   0  0  0  0  0  0  0  0  0  0  0  0
   -7.6238    4.3718  -12.8220 N   0  0  0  0  0  0  0  0  0  0  0  0
   -6.9571    5.4444  -13.7054 C   0  0  0  0  0  0  0  0  0  0  0  0
   -6.4139    6.4344  -13.4128 O   0  0  0  0  0  0  0  0  0  0  0  0
   -7.0281    5.0794  -15.1372 C   0  0  0  0  0  0  0  0  0  0  0  0
   -8.1727    4.5338  -15.7289 C   0  0  0  0  0  0  0  0  0  0  0  0
   -8.2058    4.2995  -17.1079 C   0  0  0  0  0  0  0  0  0  0  0  0
   -9.4847    3.7839  -17.7341 C   0  0  0  0  0  0  0  0  0  0  0  0
   -9.7520    3.9617  -19.2059 C   0  0  0  0  0  0  0  0  0  0  0  0
   -9.4411    2.5985  -18.6650 C   0  0  0  0  0  0  0  0  0  0  0  0
   -7.1557    4.5819  -17.9199 N   0  0  0  0  0  0  0  0  0  0  0  0
   -6.0825    5.1117  -17.3118 C   0  0  0  0  0  0  0  0  0  0  0  0
   -5.9395    5.3687  -15.9619 C   0  0  0  0  0  0  0  0  0  0  0  0
   -4.6352    5.8841  -15.8308 C   0  0  0  0  0  0  0  0  0  0  0  0
   -3.9820    5.9395  -16.9948 N   0  0  0  0  0  0  0  0  0  0  0  0
   -4.9145    5.5272  -17.8981 N   0  0  0  0  0  0  0  0  0  0  0  0
   -4.5873    5.4627  -19.3157 C   0  0  0  0  0  0  0  0  0  0  0  0
   -4.4799    6.8174  -19.9701 C   0  0  0  0  0  0  0  0  0  0  0  0
   -3.7518    7.9488  -19.4621 C   0  0  0  0  0  0  0  0  0  0  0  0
   -3.7951    9.0394  -20.3015 C   0  0  0  0  0  0  0  0  0  0  0  0
   -4.6845    8.7162  -21.7208 S   0  0  0  0  0  0  0  0  0  0  0  0
   -5.0211    7.1197  -21.2080 C   0  0  0  0  0  0  0  0  0  0  0  0
   -8.5032    3.2390  -10.9278 C   0  0  0  0  0  0  0  0  0  0  0  0
   -8.7114    3.2347   -9.5671 C   0  0  0  0  0  0  0  0  0  0  0  0
   -9.4562    2.2619   -8.7830 C   0  0  0  0  0  0  0  0  0  0  0  0
   -9.9772    1.2691   -9.2427 O   0  0  0  0  0  0  0  0  0  0  0  0
  1  2  1  0
  2  3  1  0
  3  4  1  0
  4  5  1  0
  5  6  2  0
  6  7  1  0
  7  8  2  0
  8  9  1  0
  9 10  1  0
 10 11  2  0
 10 12  1  0
 12 13  2  0
 13 14  1  0
 14 15  1  0
 15 16  1  0
 16 17  1  0
 14 18  2  0
 18 19  1  0
 19 20  2  0
 20 21  1  0
 21 22  2  0
 22 23  1  0
 23 24  1  0
 24 25  1  0
 25 26  1  0
 26 27  2  0
 27 28  1  0
 28 29  1  0
  8 30  1  0
 30 31  2  0
 31 32  1  0
 32 33  2  0
 32  3  1  0
 31  5  1  0
 20 12  1  0
 29 25  2  0
 17 15  1  0
 23 19  1  0
M  END
>  <name>  (726) 
P125585

>  <alias>  (726) 
None

>  <smina_score_min>  (726) 
-8.805

>  <exports>  (726) 
['/opt/xchem-fragalysis-2/maxwin/BulkDock/OUTPUTS/openbind_xx01zvns2b_c2_elabs_1LOUTNY.sdf', '/opt/xchem-fragalysis-2/maxwin/BulkDock/OUTPUTS/openbind_xx01zvns2b_c2_elabs_1LSYIIV.sdf']

>  <tags>  (726) 
syndirella_placed,openbind_xx01zvns2b_c2_elabs,openbind_xx01zvns2b_c2_elabs_scored_6.2plus,syndirella_product,openbind_xx01zvns2b_c2_elabs_scored,openbind_xx01zvns2b_c2_elabs_scored_top80percent,BulkDock Fragalysis export

>  <subsites>  (726) 
1 - Z4590/B/203/1

>  <smiles>  (726) 
CCN1Cc2ccc(NC(=O)c3cc(C4CC4)nc4c3cnn4Cc3ccsc3)cc2C1=O

>  <HIPPO Pose ID>  (726) 
125585

>  <energy_score>  (726) 
-58.124388

>  <inchikey>  (726) 
BGPGNAMLDAYMMJ-UHFFFAOYSA-N

>  <gnina_score_min>  (726) 
6.382

>  <gnina_score>  (726) 
6.461

>  <ref_mols>  (726) 
Z3559a

>  <HIPPO Compound ID>  (726) 
180021

>  <distance_score>  (726) 
0.490116

>  <rmsd(smina/fragmenstein)>  (726) 
0.571

>  <ref_pdb>  (726) 
Z3559a

>  <inspiration_score>  (726) 
None

$$$$
P125587
     RDKit          3D

 33 38  0  0  0  0  0  0  0  0999 V2000
   -9.8692    1.6159   -6.2747 C   0  0  0  0  0  0  0  0  0  0  0  0
   -9.7340    3.1016   -6.4587 C   0  0  0  0  0  0  0  0  0  0  0  0
  -10.5979    3.8413   -6.0649 O   0  0  0  0  0  0  0  0  0  0  0  0
   -8.5512    3.3724   -7.2038 N   0  0  0  0  0  0  0  0  0  0  0  0
   -7.9377    4.6918   -7.6440 C   0  0  0  0  0  0  0  0  0  0  0  0
   -7.2068    4.7201   -8.9199 C   0  0  0  0  0  0  0  0  0  0  0  0
   -6.2976    5.5847   -9.4821 C   0  0  0  0  0  0  0  0  0  0  0  0
   -6.0469    5.4497  -10.8499 C   0  0  0  0  0  0  0  0  0  0  0  0
   -6.7035    4.4627  -11.6087 C   0  0  0  0  0  0  0  0  0  0  0  0
   -6.6040    4.4308  -12.9966 N   0  0  0  0  0  0  0  0  0  0  0  0
   -5.9894    5.3429  -13.9175 C   0  0  0  0  0  0  0  0  0  0  0  0
   -5.3340    6.3275  -13.7246 O   0  0  0  0  0  0  0  0  0  0  0  0
   -6.3087    5.0628  -15.3500 C   0  0  0  0  0  0  0  0  0  0  0  0
   -7.5203    4.4867  -15.7735 C   0  0  0  0  0  0  0  0  0  0  0  0
   -7.8303    4.3792  -17.1361 C   0  0  0  0  0  0  0  0  0  0  0  0
   -9.1570    3.7659  -17.5493 C   0  0  0  0  0  0  0  0  0  0  0  0
   -9.7721    4.0606  -18.8964 C   0  0  0  0  0  0  0  0  0  0  0  0
   -9.1935    2.7052  -18.6248 C   0  0  0  0  0  0  0  0  0  0  0  0
   -7.0118    4.8607  -18.1000 N   0  0  0  0  0  0  0  0  0  0  0  0
   -5.8730    5.4206  -17.6616 C   0  0  0  0  0  0  0  0  0  0  0  0
   -5.4524    5.5431  -16.3504 C   0  0  0  0  0  0  0  0  0  0  0  0
   -4.2148    6.2175  -16.4432 C   0  0  0  0  0  0  0  0  0  0  0  0
   -3.8964    6.5570  -17.6972 N   0  0  0  0  0  0  0  0  0  0  0  0
   -4.9336    6.0669  -18.4236 N   0  0  0  0  0  0  0  0  0  0  0  0
   -5.1176    6.4905  -19.8017 C   0  0  0  0  0  0  0  0  0  0  0  0
   -4.5120    5.5432  -20.7820 C   0  0  0  0  0  0  0  0  0  0  0  0
   -5.1743    4.3777  -21.2852 C   0  0  0  0  0  0  0  0  0  0  0  0
   -4.4149    3.6968  -22.2058 C   0  0  0  0  0  0  0  0  0  0  0  0
   -2.9242    4.4679  -22.5061 S   0  0  0  0  0  0  0  0  0  0  0  0
   -3.2610    5.6838  -21.3546 C   0  0  0  0  0  0  0  0  0  0  0  0
   -7.5823    3.5708  -10.9896 C   0  0  0  0  0  0  0  0  0  0  0  0
   -7.8152    3.7510   -9.6418 C   0  0  0  0  0  0  0  0  0  0  0  0
   -8.8403    3.2494   -8.7128 C   0  0  0  0  0  0  0  0  0  0  0  0
  1  2  1  0
  2  3  2  0
  2  4  1  0
  4  5  1  0
  5  6  1  0
  6  7  2  0
  7  8  1  0
  8  9  2  0
  9 10  1  0
 10 11  1  0
 11 12  2  0
 11 13  1  0
 13 14  2  0
 14 15  1  0
 15 16  1  0
 16 17  1  0
 17 18  1  0
 15 19  2  0
 19 20  1  0
 20 21  2  0
 21 22  1  0
 22 23  2  0
 23 24  1  0
 24 25  1  0
 25 26  1  0
 26 27  1  0
 27 28  2  0
 28 29  1  0
 29 30  1  0
  9 31  1  0
 31 32  2  0
 32 33  1  0
 33  4  1  0
 32  6  1  0
 21 13  1  0
 30 26  2  0
 18 16  1  0
 24 20  1  0
M  END
>  <name>  (727) 
P125587

>  <alias>  (727) 
None

>  <smina_score_min>  (727) 
-8.911

>  <exports>  (727) 
['/opt/xchem-fragalysis-2/maxwin/BulkDock/OUTPUTS/openbind_xx01zvns2b_c2_elabs_1LOUTNY.sdf', '/opt/xchem-fragalysis-2/maxwin/BulkDock/OUTPUTS/openbind_xx01zvns2b_c2_elabs_1LSYIIV.sdf']

>  <tags>  (727) 
syndirella_placed,openbind_xx01zvns2b_c2_elabs,openbind_xx01zvns2b_c2_elabs_scored_6.2plus,syndirella_product,openbind_xx01zvns2b_c2_elabs_scored,openbind_xx01zvns2b_c2_elabs_scored_top80percent,BulkDock Fragalysis export

>  <subsites>  (727) 
1 - Z4590/B/203/1

>  <smiles>  (727) 
CC(=O)N1Cc2ccc(NC(=O)c3cc(C4CC4)nc4c3cnn4Cc3ccsc3)cc2C1

>  <HIPPO Pose ID>  (727) 
125587

>  <energy_score>  (727) 
-93.46737

>  <inchikey>  (727) 
ALJRYFTVVDYYKO-UHFFFAOYSA-N

>  <gnina_score_min>  (727) 
6.377

>  <gnina_score>  (727) 
6.254

>  <ref_mols>  (727) 
Z3559a

>  <HIPPO Compound ID>  (727) 
180019

>  <distance_score>  (727) 
1.27373

>  <rmsd(smina/fragmenstein)>  (727) 
0.407

>  <ref_pdb>  (727) 
Z3559a

>  <inspiration_score>  (727) 
None

$$$$
P125589
     RDKit          3D

 33 38  0  0  0  0  0  0  0  0999 V2000
  -10.0482    2.4779   -5.8837 C   0  0  0  0  0  0  0  0  0  0  0  0
   -8.9386    2.8782   -6.7306 N   0  0  0  0  0  0  0  0  0  0  0  0
   -9.0614    2.2958   -8.0911 C   0  0  0  0  0  0  0  0  0  0  0  0
   -8.6602    3.3799   -9.0363 C   0  0  0  0  0  0  0  0  0  0  0  0
   -8.4759    3.3046  -10.4157 C   0  0  0  0  0  0  0  0  0  0  0  0
   -8.0607    4.4543  -11.0915 C   0  0  0  0  0  0  0  0  0  0  0  0
   -7.7918    4.4009  -12.4620 N   0  0  0  0  0  0  0  0  0  0  0  0
   -7.3385    5.5096  -13.4408 C   0  0  0  0  0  0  0  0  0  0  0  0
   -7.0447    6.6227  -13.2408 O   0  0  0  0  0  0  0  0  0  0  0  0
   -7.2431    5.0390  -14.8400 C   0  0  0  0  0  0  0  0  0  0  0  0
   -8.3249    4.4690  -15.5123 C   0  0  0  0  0  0  0  0  0  0  0  0
   -8.2589    4.2748  -16.8979 C   0  0  0  0  0  0  0  0  0  0  0  0
   -9.4911    3.7860  -17.6361 C   0  0  0  0  0  0  0  0  0  0  0  0
   -9.6540    4.0225  -19.1172 C   0  0  0  0  0  0  0  0  0  0  0  0
   -9.3884    2.6384  -18.6095 C   0  0  0  0  0  0  0  0  0  0  0  0
   -7.1604    4.5944  -17.6288 N   0  0  0  0  0  0  0  0  0  0  0  0
   -6.1295    5.1211  -16.9464 C   0  0  0  0  0  0  0  0  0  0  0  0
   -6.1010    5.3617  -15.5832 C   0  0  0  0  0  0  0  0  0  0  0  0
   -4.8480    5.9555  -15.3524 C   0  0  0  0  0  0  0  0  0  0  0  0
   -4.1289    6.0954  -16.4665 N   0  0  0  0  0  0  0  0  0  0  0  0
   -4.9301    5.5884  -17.4433 N   0  0  0  0  0  0  0  0  0  0  0  0
   -4.5170    5.8028  -18.8325 C   0  0  0  0  0  0  0  0  0  0  0  0
   -5.3666    5.0874  -19.8964 C   0  0  0  0  0  0  0  0  0  0  0  0
   -4.6959    4.9627  -21.2676 C   0  0  0  0  0  0  0  0  0  0  0  0
   -3.6477    6.0381  -21.4912 C   0  0  0  0  0  0  0  0  0  0  0  0
   -2.5365    5.9517  -20.4485 C   0  0  0  0  0  0  0  0  0  0  0  0
   -3.0186    5.5211  -19.0591 C   0  0  0  0  0  0  0  0  0  0  0  0
   -7.8729    5.6512  -10.3806 C   0  0  0  0  0  0  0  0  0  0  0  0
   -8.0780    5.7151   -8.9981 C   0  0  0  0  0  0  0  0  0  0  0  0
   -8.4650    4.5666   -8.3288 C   0  0  0  0  0  0  0  0  0  0  0  0
   -8.6277    4.3273   -6.8424 C   0  0  0  0  0  0  0  0  0  0  0  0
   -7.2656    4.5949   -6.1708 C   0  0  0  0  0  0  0  0  0  0  0  0
   -9.6186    5.2808   -6.1449 C   0  0  0  0  0  0  0  0  0  0  0  0
  1  2  1  0
  2  3  1  0
  3  4  1  0
  4  5  2  0
  5  6  1  0
  6  7  1  0
  7  8  1  0
  8  9  2  0
  8 10  1  0
 10 11  2  0
 11 12  1  0
 12 13  1  0
 13 14  1  0
 14 15  1  0
 12 16  2  0
 16 17  1  0
 17 18  2  0
 18 19  1  0
 19 20  2  0
 20 21  1  0
 21 22  1  0
 22 23  1  0
 23 24  1  0
 24 25  1  0
 25 26  1  0
 26 27  1  0
  6 28  2  0
 28 29  1  0
 29 30  2  0
 30 31  1  0
 31 32  1  0
 31 33  1  0
 31  2  1  0
 30  4  1  0
 18 10  1  0
 27 22  1  0
 15 13  1  0
 21 17  1  0
M  END
>  <name>  (728) 
P125589

>  <alias>  (728) 
None

>  <smina_score_min>  (728) 
-9.793

>  <exports>  (728) 
['/opt/xchem-fragalysis-2/maxwin/BulkDock/OUTPUTS/openbind_xx01zvns2b_c2_elabs_1LOUTNY.sdf', '/opt/xchem-fragalysis-2/maxwin/BulkDock/OUTPUTS/openbind_xx01zvns2b_c2_elabs_1LSYIIV.sdf']

>  <tags>  (728) 
syndirella_placed,openbind_xx01zvns2b_c2_elabs,openbind_xx01zvns2b_c2_elabs_scored_6.2plus,syndirella_product,openbind_xx01zvns2b_c2_elabs_scored,openbind_xx01zvns2b_c2_elabs_scored_top80percent,BulkDock Fragalysis export

>  <subsites>  (728) 
1 - Z4590/B/203/1

>  <smiles>  (728) 
CN1Cc2cc(NC(=O)c3cc(C4CC4)nc4c3cnn4C3CCCCC3)ccc2C1(C)C

>  <HIPPO Pose ID>  (728) 
125589

>  <energy_score>  (728) 
-41.3584

>  <inchikey>  (728) 
CRCTWFBKJXIQHJ-UHFFFAOYSA-N

>  <gnina_score_min>  (728) 
6.629

>  <gnina_score>  (728) 
6.575

>  <ref_mols>  (728) 
Z3559a

>  <HIPPO Compound ID>  (728) 
180025

>  <distance_score>  (728) 
0.525424

>  <rmsd(smina/fragmenstein)>  (728) 
0.737

>  <ref_pdb>  (728) 
Z3559a

>  <inspiration_score>  (728) 
None

$$$$
P125590
     RDKit          3D

 33 38  0  0  0  0  0  0  0  0999 V2000
   -9.9537    3.7142   -4.4645 C   0  0  0  0  0  0  0  0  0  0  0  0
  -10.6173    2.6189   -5.2873 C   0  0  0  0  0  0  0  0  0  0  0  0
   -9.7354    1.9845   -6.3674 C   0  0  0  0  0  0  0  0  0  0  0  0
   -9.6097    2.8200   -7.5445 N   0  0  0  0  0  0  0  0  0  0  0  0
   -8.7127    3.9738   -7.3922 C   0  0  0  0  0  0  0  0  0  0  0  0
   -8.2790    4.2594   -8.7885 C   0  0  0  0  0  0  0  0  0  0  0  0
   -7.7491    5.4170   -9.3143 C   0  0  0  0  0  0  0  0  0  0  0  0
   -7.4883    5.4383  -10.6804 C   0  0  0  0  0  0  0  0  0  0  0  0
   -7.7455    4.3108  -11.4807 C   0  0  0  0  0  0  0  0  0  0  0  0
   -7.4966    4.3475  -12.8428 N   0  0  0  0  0  0  0  0  0  0  0  0
   -6.9556    5.4831  -13.7306 C   0  0  0  0  0  0  0  0  0  0  0  0
   -6.5610    6.5428  -13.4458 O   0  0  0  0  0  0  0  0  0  0  0  0
   -6.9523    5.0903  -15.1485 C   0  0  0  0  0  0  0  0  0  0  0  0
   -8.0622    4.5101  -15.7585 C   0  0  0  0  0  0  0  0  0  0  0  0
   -8.0571    4.2913  -17.1371 C   0  0  0  0  0  0  0  0  0  0  0  0
   -9.3308    3.7639  -17.7715 C   0  0  0  0  0  0  0  0  0  0  0  0
   -9.2841    2.5992  -18.7251 C   0  0  0  0  0  0  0  0  0  0  0  0
   -9.6180    3.9694  -19.2334 C   0  0  0  0  0  0  0  0  0  0  0  0
   -6.9899    4.6036  -17.9242 N   0  0  0  0  0  0  0  0  0  0  0  0
   -5.9363    5.1634  -17.2941 C   0  0  0  0  0  0  0  0  0  0  0  0
   -5.8536    5.4238  -15.9369 C   0  0  0  0  0  0  0  0  0  0  0  0
   -4.5983    6.0225  -15.7475 C   0  0  0  0  0  0  0  0  0  0  0  0
   -3.9224    6.1592  -16.8859 N   0  0  0  0  0  0  0  0  0  0  0  0
   -4.7560    5.6393  -17.8291 N   0  0  0  0  0  0  0  0  0  0  0  0
   -4.3386    5.8011  -19.2208 C   0  0  0  0  0  0  0  0  0  0  0  0
   -5.2949    5.2625  -20.2799 C   0  0  0  0  0  0  0  0  0  0  0  0
   -4.8634    5.6214  -21.7060 C   0  0  0  0  0  0  0  0  0  0  0  0
   -3.3580    5.8122  -21.8718 C   0  0  0  0  0  0  0  0  0  0  0  0
   -2.5756    4.9426  -20.9030 C   0  0  0  0  0  0  0  0  0  0  0  0
   -2.8971    5.2869  -19.4475 C   0  0  0  0  0  0  0  0  0  0  0  0
   -8.2651    3.1394  -10.9305 C   0  0  0  0  0  0  0  0  0  0  0  0
   -8.5336    3.1376   -9.5790 C   0  0  0  0  0  0  0  0  0  0  0  0
   -9.1266    2.0677   -8.7214 C   0  0  0  0  0  0  0  0  0  0  0  0
  1  2  1  0
  2  3  1  0
  3  4  1  0
  4  5  1  0
  5  6  1  0
  6  7  2  0
  7  8  1  0
  8  9  2  0
  9 10  1  0
 10 11  1  0
 11 12  2  0
 11 13  1  0
 13 14  2  0
 14 15  1  0
 15 16  1  0
 16 17  1  0
 17 18  1  0
 15 19  2  0
 19 20  1  0
 20 21  2  0
 21 22  1  0
 22 23  2  0
 23 24  1  0
 24 25  1  0
 25 26  1  0
 26 27  1  0
 27 28  1  0
 28 29  1  0
 29 30  1  0
  9 31  1  0
 31 32  2  0
 32 33  1  0
 33  4  1  0
 32  6  1  0
 21 13  1  0
 30 25  1  0
 18 16  1  0
 24 20  1  0
M  END
>  <name>  (729) 
P125590

>  <alias>  (729) 
None

>  <smina_score_min>  (729) 
-9.806

>  <exports>  (729) 
['/opt/xchem-fragalysis-2/maxwin/BulkDock/OUTPUTS/openbind_xx01zvns2b_c2_elabs_1LOUTNY.sdf', '/opt/xchem-fragalysis-2/maxwin/BulkDock/OUTPUTS/openbind_xx01zvns2b_c2_elabs_1LSYIIV.sdf']

>  <tags>  (729) 
syndirella_placed,openbind_xx01zvns2b_c2_elabs,openbind_xx01zvns2b_c2_elabs_scored_6.2plus,syndirella_product,openbind_xx01zvns2b_c2_elabs_scored,openbind_xx01zvns2b_c2_elabs_scored_top80percent,BulkDock Fragalysis export

>  <subsites>  (729) 
1 - Z4590/B/203/1

>  <smiles>  (729) 
CCCN1Cc2ccc(NC(=O)c3cc(C4CC4)nc4c3cnn4C3CCCCC3)cc2C1

>  <HIPPO Pose ID>  (729) 
125590

>  <energy_score>  (729) 
-40.610463

>  <inchikey>  (729) 
OSETZLQJBCYBSF-UHFFFAOYSA-N

>  <gnina_score_min>  (729) 
6.592

>  <gnina_score>  (729) 
6.602

>  <ref_mols>  (729) 
Z3559a

>  <HIPPO Compound ID>  (729) 
179899

>  <distance_score>  (729) 
0.566277

>  <rmsd(smina/fragmenstein)>  (729) 
0.436

>  <ref_pdb>  (729) 
Z3559a

>  <inspiration_score>  (729) 
None

$$$$
P125592
     RDKit          3D

 33 37  0  0  0  0  0  0  0  0999 V2000
   -8.0831    3.8730  -12.1776 C   0  0  0  0  0  0  0  0  0  0  0  0
   -7.9226    4.0006  -13.5933 O   0  0  0  0  0  0  0  0  0  0  0  0
   -7.0106    4.9295  -13.9689 C   0  0  0  0  0  0  0  0  0  0  0  0
   -6.4133    5.6822  -13.2183 O   0  0  0  0  0  0  0  0  0  0  0  0
   -6.8470    4.9247  -15.4395 C   0  0  0  0  0  0  0  0  0  0  0  0
   -7.8367    4.3856  -16.2866 C   0  0  0  0  0  0  0  0  0  0  0  0
   -7.6951    4.4208  -17.6796 C   0  0  0  0  0  0  0  0  0  0  0  0
   -8.7118    3.8420  -18.6396 C   0  0  0  0  0  0  0  0  0  0  0  0
   -9.3697    2.5205  -18.3545 C   0  0  0  0  0  0  0  0  0  0  0  0
  -10.1839    3.7861  -18.3371 C   0  0  0  0  0  0  0  0  0  0  0  0
   -6.6289    4.9989  -18.2676 N   0  0  0  0  0  0  0  0  0  0  0  0
   -5.7129    5.5027  -17.4328 C   0  0  0  0  0  0  0  0  0  0  0  0
   -5.7141    5.4930  -16.0490 C   0  0  0  0  0  0  0  0  0  0  0  0
   -4.4593    6.0874  -15.7085 C   0  0  0  0  0  0  0  0  0  0  0  0
   -3.8559    6.3036  -14.3687 C   0  0  0  0  0  0  0  0  0  0  0  0
   -3.7559    6.4516  -16.7973 N   0  0  0  0  0  0  0  0  0  0  0  0
   -4.5782    6.1461  -17.8202 N   0  0  0  0  0  0  0  0  0  0  0  0
   -4.1766    6.3584  -19.1944 C   0  0  0  0  0  0  0  0  0  0  0  0
   -4.8676    7.5626  -19.8430 C   0  0  0  0  0  0  0  0  0  0  0  0
   -5.3379    8.4470  -19.1802 O   0  0  0  0  0  0  0  0  0  0  0  0
   -4.7295    7.4285  -21.2872 N   0  0  0  0  0  0  0  0  0  0  0  0
   -5.0167    8.3216  -22.3214 C   0  0  0  0  0  0  0  0  0  0  0  0
   -5.3532    9.6523  -22.0482 C   0  0  0  0  0  0  0  0  0  0  0  0
   -5.6237   10.4766  -23.1198 C   0  0  0  0  0  0  0  0  0  0  0  0
   -5.5603   10.0408  -24.4093 C   0  0  0  0  0  0  0  0  0  0  0  0
   -5.2087    8.7489  -24.7284 C   0  0  0  0  0  0  0  0  0  0  0  0
   -4.9351    7.8809  -23.6653 C   0  0  0  0  0  0  0  0  0  0  0  0
   -4.4373    6.0935  -24.0836 Br  0  0  0  0  0  0  0  0  0  0  0  0
   -5.8565   11.2672  -25.1789 C   0  0  0  0  0  0  0  0  0  0  0  0
   -6.8825   12.1539  -24.4728 N   0  0  0  0  0  0  0  0  0  0  0  0
   -7.1538   13.5342  -24.6034 C   0  0  0  0  0  0  0  0  0  0  0  0
   -6.5918   14.3839  -25.2342 O   0  0  0  0  0  0  0  0  0  0  0  0
   -5.9452   11.9121  -23.2776 C   0  0  0  0  0  0  0  0  0  0  0  0
  1  2  1  0
  2  3  1  0
  3  4  2  0
  3  5  1  0
  5  6  2  0
  6  7  1  0
  7  8  1  0
  8  9  1  0
  9 10  1  0
  7 11  2  0
 11 12  1  0
 12 13  2  0
 13 14  1  0
 14 15  1  0
 14 16  2  0
 16 17  1  0
 17 18  1  0
 18 19  1  0
 19 20  2  0
 19 21  1  0
 21 22  1  0
 22 23  2  0
 23 24  1  0
 24 25  2  0
 25 26  1  0
 26 27  2  0
 27 28  1  0
 25 29  1  0
 29 30  1  0
 30 31  1  0
 31 32  2  0
 30 33  1  0
 13  5  1  0
 27 22  1  0
 10  8  1  0
 17 12  1  0
 33 24  1  0
M  END
>  <name>  (730) 
P125592

>  <alias>  (730) 
None

>  <smina_score_min>  (730) 
-8.476

>  <exports>  (730) 
['/opt/xchem-fragalysis-2/maxwin/BulkDock/OUTPUTS/openbind_xx01zvns2b_c2_elabs_1LOUTNY.sdf', '/opt/xchem-fragalysis-2/maxwin/BulkDock/OUTPUTS/openbind_xx01zvns2b_c2_elabs_1LSYIIV.sdf']

>  <tags>  (730) 
syndirella_placed,openbind_xx01zvns2b_c2_elabs,openbind_xx01zvns2b_c2_elabs_scored_6.2plus,syndirella_product,openbind_xx01zvns2b_c2_elabs_scored,openbind_xx01zvns2b_c2_elabs_scored_top80percent,BulkDock Fragalysis export

>  <subsites>  (730) 
1 - Z4590/B/203/1

>  <smiles>  (730) 
COC(=O)c1cc(C2CC2)nc2c1c(C)nn2CC(=O)Nc1cc2c(cc1Br)CN(C=O)C2

>  <HIPPO Pose ID>  (730) 
125592

>  <energy_score>  (730) 
-3.111172

>  <inchikey>  (730) 
DEJDWWNVHQMPOD-UHFFFAOYSA-N

>  <gnina_score_min>  (730) 
6.597

>  <gnina_score>  (730) 
6.294

>  <ref_mols>  (730) 
Z3559a

>  <HIPPO Compound ID>  (730) 
180082

>  <distance_score>  (730) 
1.144593

>  <rmsd(smina/fragmenstein)>  (730) 
1.814

>  <ref_pdb>  (730) 
Z3559a

>  <inspiration_score>  (730) 
None

$$$$
P125598
     RDKit          3D

 33 38  0  0  0  0  0  0  0  0999 V2000
   -9.8287    1.8832   -6.2493 C   0  0  0  0  0  0  0  0  0  0  0  0
   -9.5036    2.7403   -7.3512 N   0  0  0  0  0  0  0  0  0  0  0  0
   -8.6428    3.8937   -7.2038 C   0  0  0  0  0  0  0  0  0  0  0  0
   -8.3009    4.2195   -8.6177 C   0  0  0  0  0  0  0  0  0  0  0  0
   -7.6500    5.3115   -9.1505 C   0  0  0  0  0  0  0  0  0  0  0  0
   -7.4861    5.3610  -10.5409 C   0  0  0  0  0  0  0  0  0  0  0  0
   -7.9518    4.3222  -11.3722 C   0  0  0  0  0  0  0  0  0  0  0  0
   -7.8048    4.3881  -12.7528 N   0  0  0  0  0  0  0  0  0  0  0  0
   -7.0740    5.4225  -13.6351 C   0  0  0  0  0  0  0  0  0  0  0  0
   -6.5460    6.4232  -13.3481 O   0  0  0  0  0  0  0  0  0  0  0  0
   -7.1029    5.0439  -15.0665 C   0  0  0  0  0  0  0  0  0  0  0  0
   -8.2326    4.5014  -15.6887 C   0  0  0  0  0  0  0  0  0  0  0  0
   -8.2375    4.2836  -17.0714 C   0  0  0  0  0  0  0  0  0  0  0  0
   -9.5054    3.7837  -17.7324 C   0  0  0  0  0  0  0  0  0  0  0  0
   -9.4536    2.5914  -18.6538 C   0  0  0  0  0  0  0  0  0  0  0  0
   -9.7245    3.9553  -19.2134 C   0  0  0  0  0  0  0  0  0  0  0  0
   -7.1715    4.5736  -17.8592 N   0  0  0  0  0  0  0  0  0  0  0  0
   -6.1130    5.1015  -17.2240 C   0  0  0  0  0  0  0  0  0  0  0  0
   -5.9984    5.3450  -15.8683 C   0  0  0  0  0  0  0  0  0  0  0  0
   -4.7004    5.8703  -15.7090 C   0  0  0  0  0  0  0  0  0  0  0  0
   -4.0272    5.9463  -16.8607 N   0  0  0  0  0  0  0  0  0  0  0  0
   -4.9373    5.5322  -17.7839 N   0  0  0  0  0  0  0  0  0  0  0  0
   -4.5792    5.4807  -19.1949 C   0  0  0  0  0  0  0  0  0  0  0  0
   -4.6172    6.8170  -19.9100 C   0  0  0  0  0  0  0  0  0  0  0  0
   -4.1379    8.0046  -19.3362 C   0  0  0  0  0  0  0  0  0  0  0  0
   -4.1188    9.1980  -20.0642 C   0  0  0  0  0  0  0  0  0  0  0  0
   -4.5572    9.2198  -21.3854 C   0  0  0  0  0  0  0  0  0  0  0  0
   -5.0141    8.0473  -21.9792 C   0  0  0  0  0  0  0  0  0  0  0  0
   -5.0430    6.8574  -21.2475 C   0  0  0  0  0  0  0  0  0  0  0  0
   -8.5942    3.2166  -10.8268 C   0  0  0  0  0  0  0  0  0  0  0  0
   -8.7641    3.2088   -9.4579 C   0  0  0  0  0  0  0  0  0  0  0  0
   -9.4912    2.2421   -8.6427 C   0  0  0  0  0  0  0  0  0  0  0  0
   -9.9938    1.2226   -9.0648 O   0  0  0  0  0  0  0  0  0  0  0  0
  1  2  1  0
  2  3  1  0
  3  4  1  0
  4  5  2  0
  5  6  1  0
  6  7  2  0
  7  8  1  0
  8  9  1  0
  9 10  2  0
  9 11  1  0
 11 12  2  0
 12 13  1  0
 13 14  1  0
 14 15  1  0
 15 16  1  0
 13 17  2  0
 17 18  1  0
 18 19  2  0
 19 20  1  0
 20 21  2  0
 21 22  1  0
 22 23  1  0
 23 24  1  0
 24 25  2  0
 25 26  1  0
 26 27  2  0
 27 28  1  0
 28 29  2  0
  7 30  1  0
 30 31  2  0
 31 32  1  0
 32 33  2  0
 32  2  1  0
 31  4  1  0
 19 11  1  0
 29 24  1  0
 16 14  1  0
 22 18  1  0
M  END
>  <name>  (731) 
P125598

>  <alias>  (731) 
None

>  <smina_score_min>  (731) 
-8.733

>  <exports>  (731) 
['/opt/xchem-fragalysis-2/maxwin/BulkDock/OUTPUTS/openbind_xx01zvns2b_c2_elabs_1LOUTNY.sdf', '/opt/xchem-fragalysis-2/maxwin/BulkDock/OUTPUTS/openbind_xx01zvns2b_c2_elabs_1LSYIIV.sdf']

>  <tags>  (731) 
syndirella_placed,openbind_xx01zvns2b_c2_elabs,openbind_xx01zvns2b_c2_elabs_scored_6.2plus,syndirella_product,openbind_xx01zvns2b_c2_elabs_scored,openbind_xx01zvns2b_c2_elabs_scored_top80percent,BulkDock Fragalysis export

>  <subsites>  (731) 
1 - Z4590/B/203/1

>  <smiles>  (731) 
CN1Cc2ccc(NC(=O)c3cc(C4CC4)nc4c3cnn4Cc3ccccc3)cc2C1=O

>  <HIPPO Pose ID>  (731) 
125598

>  <energy_score>  (731) 
-53.490797

>  <inchikey>  (731) 
JWTMPJBACDDSLX-UHFFFAOYSA-N

>  <gnina_score_min>  (731) 
6.215

>  <gnina_score>  (731) 
6.359

>  <ref_mols>  (731) 
Z3559a

>  <HIPPO Compound ID>  (731) 
179609

>  <distance_score>  (731) 
0.429155

>  <rmsd(smina/fragmenstein)>  (731) 
0.578

>  <ref_pdb>  (731) 
Z3559a

>  <inspiration_score>  (731) 
None

$$$$
P125606
     RDKit          3D

 33 38  0  0  0  0  0  0  0  0999 V2000
  -10.0522    2.0887   -6.0584 C   0  0  0  0  0  0  0  0  0  0  0  0
   -9.3225    2.6415   -7.1687 N   0  0  0  0  0  0  0  0  0  0  0  0
   -8.6717    3.8398   -7.1380 C   0  0  0  0  0  0  0  0  0  0  0  0
   -8.4821    4.6041   -6.2082 O   0  0  0  0  0  0  0  0  0  0  0  0
   -8.2766    4.1253   -8.5156 C   0  0  0  0  0  0  0  0  0  0  0  0
   -7.6780    5.2444   -9.0507 C   0  0  0  0  0  0  0  0  0  0  0  0
   -7.5244    5.2814  -10.4403 C   0  0  0  0  0  0  0  0  0  0  0  0
   -7.9635    4.2156  -11.2567 C   0  0  0  0  0  0  0  0  0  0  0  0
   -7.8269    4.2928  -12.6421 N   0  0  0  0  0  0  0  0  0  0  0  0
   -7.1305    5.3556  -13.5257 C   0  0  0  0  0  0  0  0  0  0  0  0
   -6.6300    6.3707  -13.2363 O   0  0  0  0  0  0  0  0  0  0  0  0
   -7.1357    4.9905  -14.9632 C   0  0  0  0  0  0  0  0  0  0  0  0
   -8.2487    4.4368  -15.6056 C   0  0  0  0  0  0  0  0  0  0  0  0
   -8.2403    4.2476  -16.9943 C   0  0  0  0  0  0  0  0  0  0  0  0
   -9.5009    3.7654  -17.6822 C   0  0  0  0  0  0  0  0  0  0  0  0
   -9.7078    3.9797  -19.1603 C   0  0  0  0  0  0  0  0  0  0  0  0
   -9.4404    2.6007  -18.6378 C   0  0  0  0  0  0  0  0  0  0  0  0
   -7.1667    4.5520  -17.7659 N   0  0  0  0  0  0  0  0  0  0  0  0
   -6.1244    5.0892  -17.1131 C   0  0  0  0  0  0  0  0  0  0  0  0
   -6.0363    5.3405  -15.7570 C   0  0  0  0  0  0  0  0  0  0  0  0
   -4.7731    5.9467  -15.5953 C   0  0  0  0  0  0  0  0  0  0  0  0
   -4.1090    6.0827  -16.7473 N   0  0  0  0  0  0  0  0  0  0  0  0
   -4.9479    5.5364  -17.6609 N   0  0  0  0  0  0  0  0  0  0  0  0
   -4.5969    5.5159  -19.0767 C   0  0  0  0  0  0  0  0  0  0  0  0
   -3.0822    5.3691  -19.3193 C   0  0  0  0  0  0  0  0  0  0  0  0
   -2.7608    5.3179  -20.8108 C   0  0  0  0  0  0  0  0  0  0  0  0
   -3.3042    6.5465  -21.5347 C   0  0  0  0  0  0  0  0  0  0  0  0
   -4.7991    6.7283  -21.2892 C   0  0  0  0  0  0  0  0  0  0  0  0
   -5.1352    6.7592  -19.7985 C   0  0  0  0  0  0  0  0  0  0  0  0
   -8.5632    3.0893  -10.6867 C   0  0  0  0  0  0  0  0  0  0  0  0
   -8.7090    3.0806   -9.3097 C   0  0  0  0  0  0  0  0  0  0  0  0
   -9.4027    2.1375   -8.4377 C   0  0  0  0  0  0  0  0  0  0  0  0
   -9.9997    1.1607   -8.8409 O   0  0  0  0  0  0  0  0  0  0  0  0
  1  2  1  0
  2  3  1  0
  3  4  2  0
  3  5  1  0
  5  6  2  0
  6  7  1  0
  7  8  2  0
  8  9  1  0
  9 10  1  0
 10 11  2  0
 10 12  1  0
 12 13  2  0
 13 14  1  0
 14 15  1  0
 15 16  1  0
 16 17  1  0
 14 18  2  0
 18 19  1  0
 19 20  2  0
 20 21  1  0
 21 22  2  0
 22 23  1  0
 23 24  1  0
 24 25  1  0
 25 26  1  0
 26 27  1  0
 27 28  1  0
 28 29  1  0
  8 30  1  0
 30 31  2  0
 31 32  1  0
 32 33  2  0
 32  2  1  0
 31  5  1  0
 20 12  1  0
 29 24  1  0
 17 15  1  0
 23 19  1  0
M  END
>  <name>  (732) 
P125606

>  <alias>  (732) 
None

>  <smina_score_min>  (732) 
-9.798

>  <exports>  (732) 
['/opt/xchem-fragalysis-2/maxwin/BulkDock/OUTPUTS/openbind_xx01zvns2b_c2_elabs_1LOUTNY.sdf', '/opt/xchem-fragalysis-2/maxwin/BulkDock/OUTPUTS/openbind_xx01zvns2b_c2_elabs_1LSYIIV.sdf']

>  <tags>  (732) 
syndirella_placed,openbind_xx01zvns2b_c2_elabs,openbind_xx01zvns2b_c2_elabs_scored_6.2plus,syndirella_product,openbind_xx01zvns2b_c2_elabs_scored,openbind_xx01zvns2b_c2_elabs_scored_top80percent,BulkDock Fragalysis export

>  <subsites>  (732) 
1 - Z4590/B/203/1

>  <smiles>  (732) 
CN1C(=O)c2ccc(NC(=O)c3cc(C4CC4)nc4c3cnn4C3CCCCC3)cc2C1=O

>  <HIPPO Pose ID>  (732) 
125606

>  <energy_score>  (732) 
-52.627142

>  <inchikey>  (732) 
MMWNCEXQSSVDDU-UHFFFAOYSA-N

>  <gnina_score_min>  (732) 
6.374

>  <gnina_score>  (732) 
6.504

>  <ref_mols>  (732) 
Z3559a

>  <HIPPO Compound ID>  (732) 
179898

>  <distance_score>  (732) 
0.370691

>  <rmsd(smina/fragmenstein)>  (732) 
0.422

>  <ref_pdb>  (732) 
Z3559a

>  <inspiration_score>  (732) 
None

$$$$
P125607
     RDKit          3D

 33 38  0  0  0  0  0  0  0  0999 V2000
   -8.6209    3.7952   -4.1169 C   0  0  0  0  0  0  0  0  0  0  0  0
   -9.4406    3.3590   -5.3116 C   0  0  0  0  0  0  0  0  0  0  0  0
  -10.6143    3.1327   -5.1838 O   0  0  0  0  0  0  0  0  0  0  0  0
   -8.6196    3.3702   -6.4767 N   0  0  0  0  0  0  0  0  0  0  0  0
   -8.5902    4.7650   -7.0753 C   0  0  0  0  0  0  0  0  0  0  0  0
   -7.9965    4.9262   -8.4072 C   0  0  0  0  0  0  0  0  0  0  0  0
   -7.4444    5.9964   -9.0694 C   0  0  0  0  0  0  0  0  0  0  0  0
   -7.1774    5.8378  -10.4279 C   0  0  0  0  0  0  0  0  0  0  0  0
   -7.4913    4.6378  -11.0963 C   0  0  0  0  0  0  0  0  0  0  0  0
   -7.2886    4.5403  -12.4785 N   0  0  0  0  0  0  0  0  0  0  0  0
   -6.8673    5.5228  -13.4419 C   0  0  0  0  0  0  0  0  0  0  0  0
   -6.5056    6.6574  -13.2978 O   0  0  0  0  0  0  0  0  0  0  0  0
   -6.9022    5.0736  -14.8534 C   0  0  0  0  0  0  0  0  0  0  0  0
   -8.0349    4.4915  -15.4382 C   0  0  0  0  0  0  0  0  0  0  0  0
   -8.0822    4.2789  -16.8257 C   0  0  0  0  0  0  0  0  0  0  0  0
   -9.3601    3.7676  -17.4654 C   0  0  0  0  0  0  0  0  0  0  0  0
   -9.3074    2.7022  -18.5356 C   0  0  0  0  0  0  0  0  0  0  0  0
   -9.6950    4.1018  -18.9008 C   0  0  0  0  0  0  0  0  0  0  0  0
   -7.0461    4.5850  -17.6440 N   0  0  0  0  0  0  0  0  0  0  0  0
   -5.9816    5.1376  -17.0431 C   0  0  0  0  0  0  0  0  0  0  0  0
   -5.8377    5.4161  -15.6983 C   0  0  0  0  0  0  0  0  0  0  0  0
   -4.5781    6.0468  -15.6070 C   0  0  0  0  0  0  0  0  0  0  0  0
   -3.9634    6.1620  -16.7900 N   0  0  0  0  0  0  0  0  0  0  0  0
   -4.8363    5.5846  -17.6515 N   0  0  0  0  0  0  0  0  0  0  0  0
   -4.5790    5.5679  -19.0855 C   0  0  0  0  0  0  0  0  0  0  0  0
   -5.1688    6.8176  -19.7623 C   0  0  0  0  0  0  0  0  0  0  0  0
   -4.5694    7.1014  -21.1429 C   0  0  0  0  0  0  0  0  0  0  0  0
   -4.0115    5.8453  -21.7996 C   0  0  0  0  0  0  0  0  0  0  0  0
   -2.9066    5.2060  -20.9551 C   0  0  0  0  0  0  0  0  0  0  0  0
   -3.0963    5.4067  -19.4479 C   0  0  0  0  0  0  0  0  0  0  0  0
   -8.0392    3.5656  -10.3761 C   0  0  0  0  0  0  0  0  0  0  0  0
   -8.2679    3.7498   -9.0200 C   0  0  0  0  0  0  0  0  0  0  0  0
   -8.9414    2.9799   -7.9489 C   0  0  0  0  0  0  0  0  0  0  0  0
  1  2  1  0
  2  3  2  0
  2  4  1  0
  4  5  1  0
  5  6  1  0
  6  7  2  0
  7  8  1  0
  8  9  2  0
  9 10  1  0
 10 11  1  0
 11 12  2  0
 11 13  1  0
 13 14  2  0
 14 15  1  0
 15 16  1  0
 16 17  1  0
 17 18  1  0
 15 19  2  0
 19 20  1  0
 20 21  2  0
 21 22  1  0
 22 23  2  0
 23 24  1  0
 24 25  1  0
 25 26  1  0
 26 27  1  0
 27 28  1  0
 28 29  1  0
 29 30  1  0
  9 31  1  0
 31 32  2  0
 32 33  1  0
 33  4  1  0
 32  6  1  0
 21 13  1  0
 30 25  1  0
 18 16  1  0
 24 20  1  0
M  END
>  <name>  (733) 
P125607

>  <alias>  (733) 
None

>  <smina_score_min>  (733) 
-9.446

>  <exports>  (733) 
['/opt/xchem-fragalysis-2/maxwin/BulkDock/OUTPUTS/openbind_xx01zvns2b_c2_elabs_1LOUTNY.sdf', '/opt/xchem-fragalysis-2/maxwin/BulkDock/OUTPUTS/openbind_xx01zvns2b_c2_elabs_1LSYIIV.sdf']

>  <tags>  (733) 
syndirella_placed,openbind_xx01zvns2b_c2_elabs,openbind_xx01zvns2b_c2_elabs_scored_6.2plus,syndirella_product,openbind_xx01zvns2b_c2_elabs_scored,openbind_xx01zvns2b_c2_elabs_scored_top80percent,BulkDock Fragalysis export

>  <subsites>  (733) 
1 - Z4590/B/203/1

>  <smiles>  (733) 
CC(=O)N1Cc2ccc(NC(=O)c3cc(C4CC4)nc4c3cnn4C3CCCCC3)cc2C1

>  <HIPPO Pose ID>  (733) 
125607

>  <energy_score>  (733) 
-3.029947

>  <inchikey>  (733) 
NIIXBUJFBXFNDI-UHFFFAOYSA-N

>  <gnina_score_min>  (733) 
6.3

>  <gnina_score>  (733) 
6.321

>  <ref_mols>  (733) 
Z3559a

>  <HIPPO Compound ID>  (733) 
179997

>  <distance_score>  (733) 
0.814564

>  <rmsd(smina/fragmenstein)>  (733) 
0.691

>  <ref_pdb>  (733) 
Z3559a

>  <inspiration_score>  (733) 
None

$$$$
P125608
     RDKit          3D

 33 38  0  0  0  0  0  0  0  0999 V2000
  -10.6742    2.7119   -5.3862 C   0  0  0  0  0  0  0  0  0  0  0  0
   -9.8673    1.9437   -6.4095 C   0  0  0  0  0  0  0  0  0  0  0  0
   -9.4484    2.7654   -7.5148 N   0  0  0  0  0  0  0  0  0  0  0  0
   -8.6112    3.9381   -7.3559 C   0  0  0  0  0  0  0  0  0  0  0  0
   -8.2190    4.2398   -8.7621 C   0  0  0  0  0  0  0  0  0  0  0  0
   -7.5200    5.3049   -9.2887 C   0  0  0  0  0  0  0  0  0  0  0  0
   -7.2899    5.3186  -10.6718 C   0  0  0  0  0  0  0  0  0  0  0  0
   -7.7472    4.2750  -11.5009 C   0  0  0  0  0  0  0  0  0  0  0  0
   -7.5205    4.2809  -12.8707 N   0  0  0  0  0  0  0  0  0  0  0  0
   -6.7823    5.3037  -13.7604 C   0  0  0  0  0  0  0  0  0  0  0  0
   -6.1822    6.2627  -13.4728 O   0  0  0  0  0  0  0  0  0  0  0  0
   -6.9210    4.9786  -15.2035 C   0  0  0  0  0  0  0  0  0  0  0  0
   -8.0941    4.4412  -15.7537 C   0  0  0  0  0  0  0  0  0  0  0  0
   -8.2239    4.2976  -17.1394 C   0  0  0  0  0  0  0  0  0  0  0  0
   -9.5195    3.7731  -17.7147 C   0  0  0  0  0  0  0  0  0  0  0  0
   -9.8608    3.9675  -19.1693 C   0  0  0  0  0  0  0  0  0  0  0  0
   -9.4879    2.6045  -18.6677 C   0  0  0  0  0  0  0  0  0  0  0  0
   -7.2579    4.6897  -18.0015 N   0  0  0  0  0  0  0  0  0  0  0  0
   -6.1580    5.2072  -17.4391 C   0  0  0  0  0  0  0  0  0  0  0  0
   -5.9056    5.3563  -16.0895 C   0  0  0  0  0  0  0  0  0  0  0  0
   -4.6152    5.9230  -16.0393 C   0  0  0  0  0  0  0  0  0  0  0  0
   -4.0962    6.1492  -17.2527 N   0  0  0  0  0  0  0  0  0  0  0  0
   -5.0963    5.7783  -18.0932 N   0  0  0  0  0  0  0  0  0  0  0  0
   -5.0733    6.1478  -19.5083 C   0  0  0  0  0  0  0  0  0  0  0  0
   -4.4976    5.0322  -20.3816 C   0  0  0  0  0  0  0  0  0  0  0  0
   -4.4296    5.4094  -21.8598 C   0  0  0  0  0  0  0  0  0  0  0  0
   -3.7094    6.7337  -22.0796 C   0  0  0  0  0  0  0  0  0  0  0  0
   -4.3308    7.8480  -21.2454 C   0  0  0  0  0  0  0  0  0  0  0  0
   -4.3536    7.4861  -19.7626 C   0  0  0  0  0  0  0  0  0  0  0  0
   -8.4584    3.2090  -10.9644 C   0  0  0  0  0  0  0  0  0  0  0  0
   -8.6785    3.2304   -9.6044 C   0  0  0  0  0  0  0  0  0  0  0  0
   -9.4434    2.2828   -8.8074 C   0  0  0  0  0  0  0  0  0  0  0  0
   -9.9877    1.2970   -9.2554 O   0  0  0  0  0  0  0  0  0  0  0  0
  1  2  1  0
  2  3  1  0
  3  4  1  0
  4  5  1  0
  5  6  2  0
  6  7  1  0
  7  8  2  0
  8  9  1  0
  9 10  1  0
 10 11  2  0
 10 12  1  0
 12 13  2  0
 13 14  1  0
 14 15  1  0
 15 16  1  0
 16 17  1  0
 14 18  2  0
 18 19  1  0
 19 20  2  0
 20 21  1  0
 21 22  2  0
 22 23  1  0
 23 24  1  0
 24 25  1  0
 25 26  1  0
 26 27  1  0
 27 28  1  0
 28 29  1  0
  8 30  1  0
 30 31  2  0
 31 32  1  0
 32 33  2  0
 32  3  1  0
 31  5  1  0
 20 12  1  0
 29 24  1  0
 17 15  1  0
 23 19  1  0
M  END
>  <name>  (734) 
P125608

>  <alias>  (734) 
None

>  <smina_score_min>  (734) 
-9.391

>  <exports>  (734) 
['/opt/xchem-fragalysis-2/maxwin/BulkDock/OUTPUTS/openbind_xx01zvns2b_c2_elabs_1LOUTNY.sdf', '/opt/xchem-fragalysis-2/maxwin/BulkDock/OUTPUTS/openbind_xx01zvns2b_c2_elabs_1LSYIIV.sdf']

>  <tags>  (734) 
syndirella_placed,openbind_xx01zvns2b_c2_elabs,openbind_xx01zvns2b_c2_elabs_scored_6.2plus,syndirella_product,openbind_xx01zvns2b_c2_elabs_scored,openbind_xx01zvns2b_c2_elabs_scored_top80percent,BulkDock Fragalysis export

>  <subsites>  (734) 
1 - Z4590/B/203/1

>  <smiles>  (734) 
CCN1Cc2ccc(NC(=O)c3cc(C4CC4)nc4c3cnn4C3CCCCC3)cc2C1=O

>  <HIPPO Pose ID>  (734) 
125608

>  <energy_score>  (734) 
-33.316909

>  <inchikey>  (734) 
JYKCIJZNDGYRHK-UHFFFAOYSA-N

>  <gnina_score_min>  (734) 
6.365

>  <gnina_score>  (734) 
6.552

>  <ref_mols>  (734) 
Z3559a

>  <HIPPO Compound ID>  (734) 
180024

>  <distance_score>  (734) 
0.560779

>  <rmsd(smina/fragmenstein)>  (734) 
0.626

>  <ref_pdb>  (734) 
Z3559a

>  <inspiration_score>  (734) 
None

$$$$
P125618
     RDKit          3D

 33 37  0  0  0  0  0  0  0  0999 V2000
  -10.0585    3.9353   -4.4706 C   0  0  0  0  0  0  0  0  0  0  0  0
  -10.6369    3.0972   -5.4578 O   0  0  0  0  0  0  0  0  0  0  0  0
   -9.6770    2.2757   -6.1280 C   0  0  0  0  0  0  0  0  0  0  0  0
   -9.2322    2.9100   -7.3276 N   0  0  0  0  0  0  0  0  0  0  0  0
   -8.3445    3.9430   -7.3333 C   0  0  0  0  0  0  0  0  0  0  0  0
   -7.8005    4.5326   -6.4149 O   0  0  0  0  0  0  0  0  0  0  0  0
   -8.0650    4.2219   -8.7314 C   0  0  0  0  0  0  0  0  0  0  0  0
   -7.3397    5.2459   -9.2918 C   0  0  0  0  0  0  0  0  0  0  0  0
   -7.2102    5.2333  -10.6792 C   0  0  0  0  0  0  0  0  0  0  0  0
   -7.7875    4.2083  -11.4621 C   0  0  0  0  0  0  0  0  0  0  0  0
   -7.5945    4.2053  -12.8392 N   0  0  0  0  0  0  0  0  0  0  0  0
   -6.9041    5.2396  -13.7591 C   0  0  0  0  0  0  0  0  0  0  0  0
   -6.3223    6.2179  -13.4956 O   0  0  0  0  0  0  0  0  0  0  0  0
   -7.0185    4.9046  -15.1984 C   0  0  0  0  0  0  0  0  0  0  0  0
   -8.1782    4.3763  -15.7764 C   0  0  0  0  0  0  0  0  0  0  0  0
   -8.2743    4.2477  -17.1678 C   0  0  0  0  0  0  0  0  0  0  0  0
   -9.5667    3.7564  -17.7751 C   0  0  0  0  0  0  0  0  0  0  0  0
   -9.8403    3.9108  -19.2479 C   0  0  0  0  0  0  0  0  0  0  0  0
   -9.5459    2.5533  -18.6825 C   0  0  0  0  0  0  0  0  0  0  0  0
   -7.2800    4.6243  -18.0119 N   0  0  0  0  0  0  0  0  0  0  0  0
   -6.1970    5.1385  -17.4163 C   0  0  0  0  0  0  0  0  0  0  0  0
   -5.9826    5.2898  -16.0611 C   0  0  0  0  0  0  0  0  0  0  0  0
   -4.7025    5.8800  -15.9781 C   0  0  0  0  0  0  0  0  0  0  0  0
   -4.1661    6.1309  -17.1789 N   0  0  0  0  0  0  0  0  0  0  0  0
   -5.1227    5.7128  -18.0414 N   0  0  0  0  0  0  0  0  0  0  0  0
   -5.0959    6.1480  -19.4193 C   0  0  0  0  0  0  0  0  0  0  0  0
   -4.8922    5.0307  -20.4015 C   0  0  0  0  0  0  0  0  0  0  0  0
   -3.6026    4.6044  -20.3381 F   0  0  0  0  0  0  0  0  0  0  0  0
   -5.0474    5.5091  -21.6668 F   0  0  0  0  0  0  0  0  0  0  0  0
   -8.5310    3.1874  -10.8659 C   0  0  0  0  0  0  0  0  0  0  0  0
   -8.6585    3.2323   -9.4908 C   0  0  0  0  0  0  0  0  0  0  0  0
   -9.3757    2.3578   -8.5688 C   0  0  0  0  0  0  0  0  0  0  0  0
   -9.9433    1.3434   -8.9166 O   0  0  0  0  0  0  0  0  0  0  0  0
  1  2  1  0
  2  3  1  0
  3  4  1  0
  4  5  1  0
  5  6  2  0
  5  7  1  0
  7  8  2  0
  8  9  1  0
  9 10  2  0
 10 11  1  0
 11 12  1  0
 12 13  2  0
 12 14  1  0
 14 15  2  0
 15 16  1  0
 16 17  1  0
 17 18  1  0
 18 19  1  0
 16 20  2  0
 20 21  1  0
 21 22  2  0
 22 23  1  0
 23 24  2  0
 24 25  1  0
 25 26  1  0
 26 27  1  0
 27 28  1  0
 27 29  1  0
 10 30  1  0
 30 31  2  0
 31 32  1  0
 32 33  2  0
 32  4  1  0
 31  7  1  0
 22 14  1  0
 19 17  1  0
 25 21  1  0
M  END
>  <name>  (735) 
P125618

>  <alias>  (735) 
None

>  <smina_score_min>  (735) 
-8.632

>  <exports>  (735) 
['/opt/xchem-fragalysis-2/maxwin/BulkDock/OUTPUTS/openbind_xx01zvns2b_c2_elabs_1LOUTNY.sdf', '/opt/xchem-fragalysis-2/maxwin/BulkDock/OUTPUTS/openbind_xx01zvns2b_c2_elabs_1LSYIIV.sdf']

>  <tags>  (735) 
syndirella_placed,openbind_xx01zvns2b_c2_elabs,openbind_xx01zvns2b_c2_elabs_scored_6.2plus,syndirella_product,openbind_xx01zvns2b_c2_elabs_scored,openbind_xx01zvns2b_c2_elabs_scored_top80percent,BulkDock Fragalysis export

>  <subsites>  (735) 
1 - Z4590/B/203/1

>  <smiles>  (735) 
COCN1C(=O)c2ccc(NC(=O)c3cc(C4CC4)nc4c3cnn4CC(F)F)cc2C1=O

>  <HIPPO Pose ID>  (735) 
125618

>  <energy_score>  (735) 
-25.984292

>  <inchikey>  (735) 
OBWOIHUYXAKKNJ-UHFFFAOYSA-N

>  <gnina_score_min>  (735) 
6.206

>  <gnina_score>  (735) 
6.238

>  <ref_mols>  (735) 
Z3559a

>  <HIPPO Compound ID>  (735) 
179804

>  <distance_score>  (735) 
0.532913

>  <rmsd(smina/fragmenstein)>  (735) 
0.302

>  <ref_pdb>  (735) 
Z3559a

>  <inspiration_score>  (735) 
None

$$$$
P125619
     RDKit          3D

 33 37  0  0  0  0  0  0  0  0999 V2000
   -4.8432    5.1240  -21.6116 C   0  0  0  0  0  0  0  0  0  0  0  0
   -5.3229    5.0517  -20.1685 C   0  0  0  0  0  0  0  0  0  0  0  0
   -4.4229    5.7590  -19.1458 C   0  0  2  0  0  0  0  0  0  0  0  0
   -2.9349    5.3953  -19.3023 C   0  0  0  0  0  0  0  0  0  0  0  0
   -4.8535    5.6199  -17.7489 N   0  0  0  0  0  0  0  0  0  0  0  0
   -4.0347    6.1489  -16.7986 N   0  0  0  0  0  0  0  0  0  0  0  0
   -4.7132    5.9949  -15.6643 C   0  0  0  0  0  0  0  0  0  0  0  0
   -5.9681    5.3939  -15.8615 C   0  0  0  0  0  0  0  0  0  0  0  0
   -7.0763    5.0570  -15.0782 C   0  0  0  0  0  0  0  0  0  0  0  0
   -7.0732    5.4590  -13.6584 C   0  0  0  0  0  0  0  0  0  0  0  0
   -6.5640    6.4758  -13.3952 O   0  0  0  0  0  0  0  0  0  0  0  0
   -7.6834    4.3786  -12.7408 N   0  0  0  0  0  0  0  0  0  0  0  0
   -7.8729    4.3657  -11.3663 C   0  0  0  0  0  0  0  0  0  0  0  0
   -7.3999    5.4553  -10.5988 C   0  0  0  0  0  0  0  0  0  0  0  0
   -7.4854    5.4552   -9.2107 C   0  0  0  0  0  0  0  0  0  0  0  0
   -8.0654    4.3522   -8.6350 C   0  0  0  0  0  0  0  0  0  0  0  0
   -8.5734    3.3010   -9.3804 C   0  0  0  0  0  0  0  0  0  0  0  0
   -8.4845    3.2687  -10.7577 C   0  0  0  0  0  0  0  0  0  0  0  0
   -9.1989    2.3746   -8.4426 C   0  0  0  0  0  0  0  0  0  0  0  0
   -9.8209    1.3864   -8.7756 O   0  0  0  0  0  0  0  0  0  0  0  0
   -8.9793    2.8985   -7.2006 N   0  0  0  0  0  0  0  0  0  0  0  0
   -9.5399    2.3696   -6.0106 C   0  0  0  0  0  0  0  0  0  0  0  0
  -10.8098    2.9941   -5.8394 O   0  0  0  0  0  0  0  0  0  0  0  0
  -11.7243    2.0583   -5.3119 C   0  0  0  0  0  0  0  0  0  0  0  0
   -8.2892    4.0669   -7.2286 C   0  0  0  0  0  0  0  0  0  0  0  0
   -7.8975    4.7764   -6.3187 O   0  0  0  0  0  0  0  0  0  0  0  0
   -8.1795    4.4820  -15.7048 C   0  0  0  0  0  0  0  0  0  0  0  0
   -8.1602    4.2789  -17.0877 C   0  0  0  0  0  0  0  0  0  0  0  0
   -9.4227    3.7695  -17.7551 C   0  0  0  0  0  0  0  0  0  0  0  0
   -9.6494    3.9523  -19.2320 C   0  0  0  0  0  0  0  0  0  0  0  0
   -9.3654    2.5859  -18.6852 C   0  0  0  0  0  0  0  0  0  0  0  0
   -7.0878    4.5978  -17.8618 N   0  0  0  0  0  0  0  0  0  0  0  0
   -6.0388    5.1470  -17.2208 C   0  0  0  0  0  0  0  0  0  0  0  0
  1  2  1  0
  2  3  1  0
  3  4  1  1
  3  5  1  0
  5  6  1  0
  6  7  2  0
  7  8  1  0
  8  9  2  0
  9 10  1  0
 10 11  2  0
 10 12  1  0
 12 13  1  0
 13 14  2  0
 14 15  1  0
 15 16  2  0
 16 17  1  0
 17 18  2  0
 17 19  1  0
 19 20  2  0
 19 21  1  0
 21 22  1  0
 22 23  1  0
 23 24  1  0
 21 25  1  0
 25 26  2  0
  9 27  1  0
 27 28  2  0
 28 29  1  0
 29 30  1  0
 30 31  1  0
 28 32  1  0
 32 33  2  0
 33  5  1  0
 33  8  1  0
 18 13  1  0
 31 29  1  0
 25 16  1  0
M  END
>  <name>  (736) 
P125619

>  <alias>  (736) 
None

>  <smina_score_min>  (736) 
-8.566

>  <exports>  (736) 
['/opt/xchem-fragalysis-2/maxwin/BulkDock/OUTPUTS/openbind_xx01zvns2b_c2_elabs_1LOUTNY.sdf', '/opt/xchem-fragalysis-2/maxwin/BulkDock/OUTPUTS/openbind_xx01zvns2b_c2_elabs_1LSYIIV.sdf']

>  <tags>  (736) 
syndirella_placed,openbind_xx01zvns2b_c2_elabs,openbind_xx01zvns2b_c2_elabs_scored_6.2plus,syndirella_product,openbind_xx01zvns2b_c2_elabs_scored,openbind_xx01zvns2b_c2_elabs_scored_top80percent,BulkDock Fragalysis export

>  <subsites>  (736) 
1 - Z4590/B/203/1

>  <smiles>  (736) 
CC[C@H](C)n1ncc2c(C(=O)Nc3ccc4c(c3)C(=O)N(COC)C4=O)cc(C3CC3)nc21

>  <HIPPO Pose ID>  (736) 
125619

>  <energy_score>  (736) 
-60.866574

>  <inchikey>  (736) 
QZSSJUHXAJDRCY-ZDUSSCGKSA-N

>  <gnina_score_min>  (736) 
6.25

>  <gnina_score>  (736) 
6.311

>  <ref_mols>  (736) 
Z3559a

>  <HIPPO Compound ID>  (736) 
179841

>  <distance_score>  (736) 
0.5111

>  <rmsd(smina/fragmenstein)>  (736) 
0.815

>  <ref_pdb>  (736) 
Z3559a

>  <inspiration_score>  (736) 
None

$$$$
P125621
     RDKit          3D

 33 37  0  0  0  0  0  0  0  0999 V2000
   -7.2249    6.5417  -13.5033 O   0  0  0  0  0  0  0  0  0  0  0  0
   -7.4892    5.4282  -13.7324 C   0  0  0  0  0  0  0  0  0  0  0  0
   -7.9522    4.2963  -12.7921 N   0  0  0  0  0  0  0  0  0  0  0  0
   -8.0913    4.2713  -11.4065 C   0  0  0  0  0  0  0  0  0  0  0  0
   -7.8941    5.4447  -10.6585 C   0  0  0  0  0  0  0  0  0  0  0  0
   -8.0148    5.4376   -9.2703 C   0  0  0  0  0  0  0  0  0  0  0  0
   -8.3373    4.2445   -8.6543 C   0  0  0  0  0  0  0  0  0  0  0  0
   -8.5307    3.0782   -9.3847 C   0  0  0  0  0  0  0  0  0  0  0  0
   -8.4120    3.0711  -10.7663 C   0  0  0  0  0  0  0  0  0  0  0  0
   -8.8652    1.9561   -8.4534 C   0  0  0  0  0  0  0  0  0  0  0  0
   -8.8993    2.5591   -7.0921 N   0  0  0  0  0  0  0  0  0  0  0  0
  -10.1533    2.2464   -6.3895 C   0  0  0  0  0  0  0  0  0  0  0  0
  -10.5536    3.0248   -5.1296 C   0  0  0  0  0  0  0  0  0  0  0  0
  -11.6285    2.4541   -4.5342 F   0  0  0  0  0  0  0  0  0  0  0  0
   -9.5698    3.1356   -4.2134 F   0  0  0  0  0  0  0  0  0  0  0  0
  -10.9362    4.2928   -5.4422 F   0  0  0  0  0  0  0  0  0  0  0  0
   -8.5659    3.9852   -7.2063 C   0  0  0  0  0  0  0  0  0  0  0  0
   -7.3266    4.9676  -15.1237 C   0  0  0  0  0  0  0  0  0  0  0  0
   -8.3340    4.2993  -15.8301 C   0  0  0  0  0  0  0  0  0  0  0  0
   -8.1625    4.0439  -17.1952 C   0  0  0  0  0  0  0  0  0  0  0  0
   -9.2237    3.3421  -18.0082 C   0  0  0  0  0  0  0  0  0  0  0  0
  -10.5981    3.9163  -18.2320 C   0  0  0  0  0  0  0  0  0  0  0  0
   -9.5919    3.9848  -19.3277 C   0  0  0  0  0  0  0  0  0  0  0  0
   -7.0551    4.4245  -17.8840 N   0  0  0  0  0  0  0  0  0  0  0  0
   -6.1253    5.0605  -17.1603 C   0  0  0  0  0  0  0  0  0  0  0  0
   -6.1687    5.3446  -15.8125 C   0  0  0  0  0  0  0  0  0  0  0  0
   -4.9498    6.0090  -15.5559 C   0  0  0  0  0  0  0  0  0  0  0  0
   -4.1971    6.1528  -16.6542 N   0  0  0  0  0  0  0  0  0  0  0  0
   -4.9726    5.6258  -17.6288 N   0  0  0  0  0  0  0  0  0  0  0  0
   -4.5946    5.7629  -19.0147 C   0  0  0  0  0  0  0  0  0  0  0  0
   -5.6109    6.5606  -19.7946 C   0  0  0  0  0  0  0  0  0  0  0  0
   -5.1665    6.7217  -21.0704 F   0  0  0  0  0  0  0  0  0  0  0  0
   -5.7381    7.8197  -19.2891 F   0  0  0  0  0  0  0  0  0  0  0  0
  1  2  2  0
  2  3  1  0
  3  4  1  0
  4  5  2  0
  5  6  1  0
  6  7  2  0
  7  8  1  0
  8  9  2  0
  8 10  1  0
 10 11  1  0
 11 12  1  0
 12 13  1  0
 13 14  1  0
 13 15  1  0
 13 16  1  0
 11 17  1  0
  2 18  1  0
 18 19  2  0
 19 20  1  0
 20 21  1  0
 21 22  1  0
 22 23  1  0
 20 24  2  0
 24 25  1  0
 25 26  2  0
 26 27  1  0
 27 28  2  0
 28 29  1  0
 29 30  1  0
 30 31  1  0
 31 32  1  0
 31 33  1  0
  9  4  1  0
 26 18  1  0
 17  7  1  0
 23 21  1  0
 29 25  1  0
M  END
>  <name>  (737) 
P125621

>  <alias>  (737) 
None

>  <smina_score_min>  (737) 
-9.44

>  <exports>  (737) 
['/opt/xchem-fragalysis-2/maxwin/BulkDock/OUTPUTS/openbind_xx01zvns2b_c2_elabs_1LOUTNY.sdf', '/opt/xchem-fragalysis-2/maxwin/BulkDock/OUTPUTS/openbind_xx01zvns2b_c2_elabs_1LSYIIV.sdf']

>  <tags>  (737) 
syndirella_placed,openbind_xx01zvns2b_c2_elabs,openbind_xx01zvns2b_c2_elabs_scored_6.2plus,syndirella_product,openbind_xx01zvns2b_c2_elabs_scored,openbind_xx01zvns2b_c2_elabs_scored_top80percent,BulkDock Fragalysis export

>  <subsites>  (737) 
1 - Z4590/B/203/1

>  <smiles>  (737) 
O=C(Nc1ccc2c(c1)CN(CC(F)(F)F)C2)c1cc(C2CC2)nc2c1cnn2CC(F)F

>  <HIPPO Pose ID>  (737) 
125621

>  <energy_score>  (737) 
-50.884359

>  <inchikey>  (737) 
BMEGXZLVKPNIFP-UHFFFAOYSA-N

>  <gnina_score_min>  (737) 
6.72

>  <gnina_score>  (737) 
6.595

>  <ref_mols>  (737) 
Z3559a

>  <HIPPO Compound ID>  (737) 
179801

>  <distance_score>  (737) 
0.557371

>  <rmsd(smina/fragmenstein)>  (737) 
0.685

>  <ref_pdb>  (737) 
Z3559a

>  <inspiration_score>  (737) 
None

$$$$
P125624
     RDKit          3D

 33 37  0  0  0  0  0  0  0  0999 V2000
   -2.1773    4.8323  -19.5843 C   0  0  0  0  0  0  0  0  0  0  0  0
   -3.1328    5.9866  -19.8385 C   0  0  0  0  0  0  0  0  0  0  0  0
   -4.6079    5.6966  -19.4724 C   0  0  2  0  0  0  0  0  0  0  0  0
   -5.4631    6.8501  -20.0076 C   0  0  0  0  0  0  0  0  0  0  0  0
   -4.8658    5.5341  -18.0439 N   0  0  0  0  0  0  0  0  0  0  0  0
   -4.0151    6.0646  -17.1292 N   0  0  0  0  0  0  0  0  0  0  0  0
   -4.6729    5.9347  -15.9757 C   0  0  0  0  0  0  0  0  0  0  0  0
   -5.9323    5.3287  -16.1371 C   0  0  0  0  0  0  0  0  0  0  0  0
   -7.0411    5.0251  -15.3505 C   0  0  0  0  0  0  0  0  0  0  0  0
   -7.0790    5.5106  -13.9696 C   0  0  0  0  0  0  0  0  0  0  0  0
   -6.6524    6.5749  -13.7555 O   0  0  0  0  0  0  0  0  0  0  0  0
   -7.7415    4.4917  -13.0242 N   0  0  0  0  0  0  0  0  0  0  0  0
   -7.9264    4.5257  -11.6549 C   0  0  0  0  0  0  0  0  0  0  0  0
   -7.5960    5.7055  -10.9642 C   0  0  0  0  0  0  0  0  0  0  0  0
   -7.7157    5.7782   -9.5908 C   0  0  0  0  0  0  0  0  0  0  0  0
   -8.1831    4.6571   -8.9497 C   0  0  0  0  0  0  0  0  0  0  0  0
   -8.5455    3.4881   -9.6201 C   0  0  0  0  0  0  0  0  0  0  0  0
   -8.4166    3.3997  -10.9896 C   0  0  0  0  0  0  0  0  0  0  0  0
   -9.0236    2.4820   -8.6186 C   0  0  0  0  0  0  0  0  0  0  0  0
   -9.1863    3.2771   -7.3736 N   0  0  0  0  0  0  0  0  0  0  0  0
   -8.8835    2.5094   -6.1827 C   0  0  0  0  0  0  0  0  0  0  0  0
   -8.7882    3.3893   -4.9264 C   0  0  0  0  0  0  0  0  0  0  0  0
  -10.1222    3.9491   -4.4441 C   0  0  0  0  0  0  0  0  0  0  0  0
   -9.9183    4.4223   -2.9986 C   0  0  0  0  0  0  0  0  0  0  0  0
  -11.2313    2.9122   -4.6307 C   0  0  0  0  0  0  0  0  0  0  0  0
   -8.3360    4.4631   -7.4955 C   0  0  0  0  0  0  0  0  0  0  0  0
   -8.1583    4.4506  -15.9505 C   0  0  0  0  0  0  0  0  0  0  0  0
   -8.1537    4.2198  -17.3249 C   0  0  0  0  0  0  0  0  0  0  0  0
   -9.4417    3.7535  -17.9620 C   0  0  0  0  0  0  0  0  0  0  0  0
   -9.4839    2.4650  -18.7344 C   0  0  0  0  0  0  0  0  0  0  0  0
   -9.6075    3.7755  -19.4548 C   0  0  0  0  0  0  0  0  0  0  0  0
   -7.0797    4.4950  -18.1149 N   0  0  0  0  0  0  0  0  0  0  0  0
   -6.0261    5.0468  -17.4843 C   0  0  0  0  0  0  0  0  0  0  0  0
  1  2  1  0
  2  3  1  0
  3  4  1  1
  3  5  1  0
  5  6  1  0
  6  7  2  0
  7  8  1  0
  8  9  2  0
  9 10  1  0
 10 11  2  0
 10 12  1  0
 12 13  1  0
 13 14  2  0
 14 15  1  0
 15 16  2  0
 16 17  1  0
 17 18  2  0
 17 19  1  0
 19 20  1  0
 20 21  1  0
 21 22  1  0
 22 23  1  0
 23 24  1  0
 23 25  1  0
 20 26  1  0
  9 27  1  0
 27 28  2  0
 28 29  1  0
 29 30  1  0
 30 31  1  0
 28 32  1  0
 32 33  2  0
 33  5  1  0
 33  8  1  0
 18 13  1  0
 31 29  1  0
 26 16  1  0
M  END
>  <name>  (738) 
P125624

>  <alias>  (738) 
None

>  <smina_score_min>  (738) 
-8.367

>  <exports>  (738) 
['/opt/xchem-fragalysis-2/maxwin/BulkDock/OUTPUTS/openbind_xx01zvns2b_c2_elabs_1LOUTNY.sdf', '/opt/xchem-fragalysis-2/maxwin/BulkDock/OUTPUTS/openbind_xx01zvns2b_c2_elabs_1LSYIIV.sdf']

>  <tags>  (738) 
syndirella_placed,openbind_xx01zvns2b_c2_elabs,openbind_xx01zvns2b_c2_elabs_scored_6.2plus,syndirella_product,openbind_xx01zvns2b_c2_elabs_scored,openbind_xx01zvns2b_c2_elabs_scored_top80percent,BulkDock Fragalysis export

>  <subsites>  (738) 
1 - Z4590/B/203/1

>  <smiles>  (738) 
CC[C@H](C)n1ncc2c(C(=O)Nc3ccc4c(c3)CN(CCC(C)C)C4)cc(C3CC3)nc21

>  <HIPPO Pose ID>  (738) 
125624

>  <energy_score>  (738) 
-53.907772

>  <inchikey>  (738) 
WINBHFBNHVMSHT-SFHVURJKSA-N

>  <gnina_score_min>  (738) 
6.503

>  <gnina_score>  (738) 
6.569

>  <ref_mols>  (738) 
Z3559a

>  <HIPPO Compound ID>  (738) 
179852

>  <distance_score>  (738) 
0.673266

>  <rmsd(smina/fragmenstein)>  (738) 
0.573

>  <ref_pdb>  (738) 
Z3559a

>  <inspiration_score>  (738) 
None

$$$$
P125625
     RDKit          3D

 33 37  0  0  0  0  0  0  0  0999 V2000
   -9.4529    5.3016   -3.6729 C   0  0  0  0  0  0  0  0  0  0  0  0
  -10.0749    4.5336   -4.6947 O   0  0  0  0  0  0  0  0  0  0  0  0
   -9.5118    3.2153   -4.7528 C   0  0  0  0  0  0  0  0  0  0  0  0
   -9.8697    2.5224   -6.0638 C   0  0  0  0  0  0  0  0  0  0  0  0
   -9.0662    2.9280   -7.2028 N   0  0  0  0  0  0  0  0  0  0  0  0
   -9.2344    2.2780   -8.4962 C   0  0  0  0  0  0  0  0  0  0  0  0
   -8.5692    3.2375   -9.4228 C   0  0  0  0  0  0  0  0  0  0  0  0
   -8.4903    3.2482  -10.8029 C   0  0  0  0  0  0  0  0  0  0  0  0
   -7.8801    4.3540  -11.4062 C   0  0  0  0  0  0  0  0  0  0  0  0
   -7.7735    4.4131  -12.7873 N   0  0  0  0  0  0  0  0  0  0  0  0
   -7.1009    5.4621  -13.6963 C   0  0  0  0  0  0  0  0  0  0  0  0
   -6.5973    6.4810  -13.4315 O   0  0  0  0  0  0  0  0  0  0  0  0
   -7.0925    5.0493  -15.1080 C   0  0  0  0  0  0  0  0  0  0  0  0
   -8.2050    4.4978  -15.7409 C   0  0  0  0  0  0  0  0  0  0  0  0
   -8.1698    4.2627  -17.1169 C   0  0  0  0  0  0  0  0  0  0  0  0
   -9.4352    3.7763  -17.7953 C   0  0  0  0  0  0  0  0  0  0  0  0
   -9.6142    3.9159  -19.2833 C   0  0  0  0  0  0  0  0  0  0  0  0
   -9.4024    2.5593  -18.6820 C   0  0  0  0  0  0  0  0  0  0  0  0
   -7.0733    4.5286  -17.8752 N   0  0  0  0  0  0  0  0  0  0  0  0
   -6.0272    5.0690  -17.2282 C   0  0  0  0  0  0  0  0  0  0  0  0
   -5.9621    5.3388  -15.8750 C   0  0  0  0  0  0  0  0  0  0  0  0
   -4.6803    5.8843  -15.6724 C   0  0  0  0  0  0  0  0  0  0  0  0
   -3.9708    5.9592  -16.7997 N   0  0  0  0  0  0  0  0  0  0  0  0
   -4.8339    5.5063  -17.7481 N   0  0  0  0  0  0  0  0  0  0  0  0
   -4.3723    5.5606  -19.1157 C   0  0  0  0  0  0  0  0  0  0  0  0
   -5.4298    5.6843  -20.1756 C   0  0  0  0  0  0  0  0  0  0  0  0
   -6.3136    6.6559  -19.8445 F   0  0  0  0  0  0  0  0  0  0  0  0
   -6.0689    4.5064  -20.3547 F   0  0  0  0  0  0  0  0  0  0  0  0
   -7.3616    5.4141  -10.6364 C   0  0  0  0  0  0  0  0  0  0  0  0
   -7.4161    5.3809   -9.2521 C   0  0  0  0  0  0  0  0  0  0  0  0
   -8.0149    4.2806   -8.6858 C   0  0  0  0  0  0  0  0  0  0  0  0
   -8.2608    4.0465   -7.2718 C   0  0  0  0  0  0  0  0  0  0  0  0
   -7.8043    4.7672   -6.4029 O   0  0  0  0  0  0  0  0  0  0  0  0
  1  2  1  0
  2  3  1  0
  3  4  1  0
  4  5  1  0
  5  6  1  0
  6  7  1  0
  7  8  2  0
  8  9  1  0
  9 10  1  0
 10 11  1  0
 11 12  2  0
 11 13  1  0
 13 14  2  0
 14 15  1  0
 15 16  1  0
 16 17  1  0
 17 18  1  0
 15 19  2  0
 19 20  1  0
 20 21  2  0
 21 22  1  0
 22 23  2  0
 23 24  1  0
 24 25  1  0
 25 26  1  0
 26 27  1  0
 26 28  1  0
  9 29  2  0
 29 30  1  0
 30 31  2  0
 31 32  1  0
 32 33  2  0
 32  5  1  0
 31  7  1  0
 21 13  1  0
 18 16  1  0
 24 20  1  0
M  END
>  <name>  (739) 
P125625

>  <alias>  (739) 
None

>  <smina_score_min>  (739) 
-8.224

>  <exports>  (739) 
['/opt/xchem-fragalysis-2/maxwin/BulkDock/OUTPUTS/openbind_xx01zvns2b_c2_elabs_1LOUTNY.sdf', '/opt/xchem-fragalysis-2/maxwin/BulkDock/OUTPUTS/openbind_xx01zvns2b_c2_elabs_1LSYIIV.sdf']

>  <tags>  (739) 
syndirella_placed,openbind_xx01zvns2b_c2_elabs,openbind_xx01zvns2b_c2_elabs_scored_6.2plus,syndirella_product,openbind_xx01zvns2b_c2_elabs_scored,openbind_xx01zvns2b_c2_elabs_scored_top80percent,BulkDock Fragalysis export

>  <subsites>  (739) 
1 - Z4590/B/203/1

>  <smiles>  (739) 
COCCN1Cc2cc(NC(=O)c3cc(C4CC4)nc4c3cnn4CC(F)F)ccc2C1=O

>  <HIPPO Pose ID>  (739) 
125625

>  <energy_score>  (739) 
-39.104981

>  <inchikey>  (739) 
YKWCJVCLHBNQAV-UHFFFAOYSA-N

>  <gnina_score_min>  (739) 
6.388

>  <gnina_score>  (739) 
6.205

>  <ref_mols>  (739) 
Z3559a

>  <HIPPO Compound ID>  (739) 
179802

>  <distance_score>  (739) 
0.508074

>  <rmsd(smina/fragmenstein)>  (739) 
1.087

>  <ref_pdb>  (739) 
Z3559a

>  <inspiration_score>  (739) 
None

$$$$
P125636
     RDKit          3D

 33 37  0  0  0  0  0  0  0  0999 V2000
   -5.1922    8.5407  -18.9053 C   0  0  0  0  0  0  0  0  0  0  0  0
   -5.4880    7.2816  -19.7107 C   0  0  0  0  0  0  0  0  0  0  0  0
   -4.6129    6.0787  -19.3191 C   0  0  2  0  0  0  0  0  0  0  0  0
   -4.7108    4.9878  -20.3825 C   0  0  0  0  0  0  0  0  0  0  0  0
   -4.8730    5.6412  -17.9504 N   0  0  0  0  0  0  0  0  0  0  0  0
   -4.0277    6.0685  -16.9750 N   0  0  0  0  0  0  0  0  0  0  0  0
   -4.7347    5.9021  -15.8536 C   0  0  0  0  0  0  0  0  0  0  0  0
   -5.9892    5.3022  -16.0823 C   0  0  0  0  0  0  0  0  0  0  0  0
   -7.1280    4.9532  -15.3425 C   0  0  0  0  0  0  0  0  0  0  0  0
   -7.2084    5.4119  -13.9398 C   0  0  0  0  0  0  0  0  0  0  0  0
   -6.7704    6.4689  -13.7067 O   0  0  0  0  0  0  0  0  0  0  0  0
   -7.8438    4.3629  -13.0021 N   0  0  0  0  0  0  0  0  0  0  0  0
   -7.9828    4.3545  -11.6174 C   0  0  0  0  0  0  0  0  0  0  0  0
   -7.5696    5.4794  -10.8735 C   0  0  0  0  0  0  0  0  0  0  0  0
   -7.6377    5.4875   -9.4848 C   0  0  0  0  0  0  0  0  0  0  0  0
   -8.1398    4.3578   -8.8830 C   0  0  0  0  0  0  0  0  0  0  0  0
   -8.5879    3.2451   -9.5956 C   0  0  0  0  0  0  0  0  0  0  0  0
   -8.5040    3.2235  -10.9776 C   0  0  0  0  0  0  0  0  0  0  0  0
   -9.1171    2.2244   -8.6441 C   0  0  0  0  0  0  0  0  0  0  0  0
   -8.9876    2.9086   -7.3685 N   0  0  0  0  0  0  0  0  0  0  0  0
   -9.3270    2.2793   -6.1186 C   0  0  0  0  0  0  0  0  0  0  0  0
  -10.6227    2.8187   -5.5061 C   0  0  0  0  0  0  0  0  0  0  0  0
  -10.6078    4.2188   -5.2057 O   0  0  0  0  0  0  0  0  0  0  0  0
   -9.7869    4.5513   -4.0958 C   0  0  0  0  0  0  0  0  0  0  0  0
   -8.3181    4.1085   -7.4569 C   0  0  0  0  0  0  0  0  0  0  0  0
   -7.9111    4.8454   -6.5772 O   0  0  0  0  0  0  0  0  0  0  0  0
   -8.1818    4.3178  -16.0058 C   0  0  0  0  0  0  0  0  0  0  0  0
   -8.0770    4.0781  -17.3788 C   0  0  0  0  0  0  0  0  0  0  0  0
   -9.1795    3.3741  -18.1340 C   0  0  0  0  0  0  0  0  0  0  0  0
  -10.5793    3.9197  -18.2445 C   0  0  0  0  0  0  0  0  0  0  0  0
   -9.6501    4.0491  -19.4006 C   0  0  0  0  0  0  0  0  0  0  0  0
   -7.0086    4.4716  -18.1211 N   0  0  0  0  0  0  0  0  0  0  0  0
   -6.0183    5.0694  -17.4437 C   0  0  0  0  0  0  0  0  0  0  0  0
  1  2  1  0
  2  3  1  0
  3  4  1  6
  3  5  1  0
  5  6  1  0
  6  7  2  0
  7  8  1  0
  8  9  2  0
  9 10  1  0
 10 11  2  0
 10 12  1  0
 12 13  1  0
 13 14  2  0
 14 15  1  0
 15 16  2  0
 16 17  1  0
 17 18  2  0
 17 19  1  0
 19 20  1  0
 20 21  1  0
 21 22  1  0
 22 23  1  0
 23 24  1  0
 20 25  1  0
 25 26  2  0
  9 27  1  0
 27 28  2  0
 28 29  1  0
 29 30  1  0
 30 31  1  0
 28 32  1  0
 32 33  2  0
 33  5  1  0
 33  8  1  0
 18 13  1  0
 31 29  1  0
 25 16  1  0
M  END
>  <name>  (740) 
P125636

>  <alias>  (740) 
None

>  <smina_score_min>  (740) 
-8.68

>  <exports>  (740) 
['/opt/xchem-fragalysis-2/maxwin/BulkDock/OUTPUTS/openbind_xx01zvns2b_c2_elabs_1LOUTNY.sdf', '/opt/xchem-fragalysis-2/maxwin/BulkDock/OUTPUTS/openbind_xx01zvns2b_c2_elabs_1LSYIIV.sdf']

>  <tags>  (740) 
syndirella_placed,openbind_xx01zvns2b_c2_elabs,openbind_xx01zvns2b_c2_elabs_scored_6.2plus,syndirella_product,openbind_xx01zvns2b_c2_elabs_scored,openbind_xx01zvns2b_c2_elabs_scored_top80percent,BulkDock Fragalysis export

>  <subsites>  (740) 
1 - Z4590/B/203/1

>  <smiles>  (740) 
CC[C@H](C)n1ncc2c(C(=O)Nc3ccc4c(c3)CN(CCOC)C4=O)cc(C3CC3)nc21

>  <HIPPO Pose ID>  (740) 
125636

>  <energy_score>  (740) 
-54.673381

>  <inchikey>  (740) 
KAQZIZBBYAKYHQ-HNNXBMFYSA-N

>  <gnina_score_min>  (740) 
6.662

>  <gnina_score>  (740) 
6.548

>  <ref_mols>  (740) 
Z3559a

>  <HIPPO Compound ID>  (740) 
179843

>  <distance_score>  (740) 
0.672592

>  <rmsd(smina/fragmenstein)>  (740) 
0.861

>  <ref_pdb>  (740) 
Z3559a

>  <inspiration_score>  (740) 
None

$$$$
P125637
     RDKit          3D

 33 38  0  0  0  0  0  0  0  0999 V2000
   -3.9300    6.4006  -14.7630 C   0  0  0  0  0  0  0  0  0  0  0  0
   -4.6877    5.9279  -15.9486 C   0  0  0  0  0  0  0  0  0  0  0  0
   -4.1311    6.0307  -17.1668 N   0  0  0  0  0  0  0  0  0  0  0  0
   -5.0664    5.5186  -17.9996 N   0  0  0  0  0  0  0  0  0  0  0  0
   -4.9638    5.5259  -19.4577 C   0  0  0  0  0  0  0  0  0  0  0  0
   -3.6871    6.0709  -20.0516 C   0  0  0  0  0  0  0  0  0  0  0  0
   -3.7442    7.1257  -20.9778 C   0  0  0  0  0  0  0  0  0  0  0  0
   -2.5820    7.6092  -21.5816 C   0  0  0  0  0  0  0  0  0  0  0  0
   -1.3492    7.0399  -21.2738 C   0  0  0  0  0  0  0  0  0  0  0  0
   -1.2792    5.9867  -20.3651 C   0  0  0  0  0  0  0  0  0  0  0  0
   -2.4399    5.4993  -19.7625 C   0  0  0  0  0  0  0  0  0  0  0  0
   -6.1809    5.0762  -17.3400 C   0  0  0  0  0  0  0  0  0  0  0  0
   -7.2586    4.5242  -17.9135 N   0  0  0  0  0  0  0  0  0  0  0  0
   -8.2875    4.2512  -17.0837 C   0  0  0  0  0  0  0  0  0  0  0  0
   -9.5727    3.7498  -17.6985 C   0  0  0  0  0  0  0  0  0  0  0  0
   -9.5386    2.5782  -18.6479 C   0  0  0  0  0  0  0  0  0  0  0  0
   -9.8533    3.9493  -19.1668 C   0  0  0  0  0  0  0  0  0  0  0  0
   -8.2186    4.4951  -15.7112 C   0  0  0  0  0  0  0  0  0  0  0  0
   -7.0620    5.0606  -15.1524 C   0  0  0  0  0  0  0  0  0  0  0  0
   -7.0365    5.4635  -13.7312 C   0  0  0  0  0  0  0  0  0  0  0  0
   -6.6470    6.5279  -13.4559 O   0  0  0  0  0  0  0  0  0  0  0  0
   -7.5732    4.3314  -12.8313 N   0  0  0  0  0  0  0  0  0  0  0  0
   -7.8229    4.3062  -11.4649 C   0  0  0  0  0  0  0  0  0  0  0  0
   -7.5720    5.4261  -10.6537 C   0  0  0  0  0  0  0  0  0  0  0  0
   -7.8291    5.3887   -9.2803 C   0  0  0  0  0  0  0  0  0  0  0  0
   -8.3505    4.2253   -8.7525 C   0  0  0  0  0  0  0  0  0  0  0  0
   -8.6057    3.1174   -9.5606 C   0  0  0  0  0  0  0  0  0  0  0  0
   -8.3416    3.1337  -10.9155 C   0  0  0  0  0  0  0  0  0  0  0  0
   -9.1686    2.0180   -8.7224 C   0  0  0  0  0  0  0  0  0  0  0  0
   -9.5944    2.7065   -7.4835 N   0  0  0  0  0  0  0  0  0  0  0  0
   -9.5245    1.8275   -6.3409 C   0  0  0  0  0  0  0  0  0  0  0  0
   -8.7306    3.8947   -7.3457 C   0  0  0  0  0  0  0  0  0  0  0  0
   -5.9917    5.3647  -16.0028 C   0  0  0  0  0  0  0  0  0  0  0  0
  1  2  1  0
  2  3  2  0
  3  4  1  0
  4  5  1  0
  5  6  1  0
  6  7  2  0
  7  8  1  0
  8  9  2  0
  9 10  1  0
 10 11  2  0
  4 12  1  0
 12 13  2  0
 13 14  1  0
 14 15  1  0
 15 16  1  0
 16 17  1  0
 14 18  2  0
 18 19  1  0
 19 20  1  0
 20 21  2  0
 20 22  1  0
 22 23  1  0
 23 24  2  0
 24 25  1  0
 25 26  2  0
 26 27  1  0
 27 28  2  0
 27 29  1  0
 29 30  1  0
 30 31  1  0
 30 32  1  0
 19 33  2  0
 33  2  1  0
 11  6  1  0
 33 12  1  0
 17 15  1  0
 28 23  1  0
 32 26  1  0
M  END
>  <name>  (741) 
P125637

>  <alias>  (741) 
None

>  <smina_score_min>  (741) 
-9.047

>  <exports>  (741) 
['/opt/xchem-fragalysis-2/maxwin/BulkDock/OUTPUTS/openbind_xx01zvns2b_c2_elabs_1LOUTNY.sdf', '/opt/xchem-fragalysis-2/maxwin/BulkDock/OUTPUTS/openbind_xx01zvns2b_c2_elabs_1LSYIIV.sdf']

>  <tags>  (741) 
syndirella_placed,openbind_xx01zvns2b_c2_elabs,openbind_xx01zvns2b_c2_elabs_scored_6.2plus,syndirella_product,openbind_xx01zvns2b_c2_elabs_scored,openbind_xx01zvns2b_c2_elabs_scored_top80percent,BulkDock Fragalysis export

>  <subsites>  (741) 
1 - Z4590/B/203/1

>  <smiles>  (741) 
Cc1nn(Cc2ccccc2)c2nc(C3CC3)cc(C(=O)Nc3ccc4c(c3)CN(C)C4)c12

>  <HIPPO Pose ID>  (741) 
125637

>  <energy_score>  (741) 
-48.272776

>  <inchikey>  (741) 
JICPZDUZLGUUBQ-UHFFFAOYSA-N

>  <gnina_score_min>  (741) 
6.528

>  <gnina_score>  (741) 
6.509

>  <ref_mols>  (741) 
Z3559a

>  <HIPPO Compound ID>  (741) 
179620

>  <distance_score>  (741) 
0.471849

>  <rmsd(smina/fragmenstein)>  (741) 
0.327

>  <ref_pdb>  (741) 
Z3559a

>  <inspiration_score>  (741) 
None

$$$$
P125638
     RDKit          3D

 33 38  0  0  0  0  0  0  0  0999 V2000
   -3.8946    6.1477  -14.5317 C   0  0  0  0  0  0  0  0  0  0  0  0
   -4.6720    5.8193  -15.7536 C   0  0  0  0  0  0  0  0  0  0  0  0
   -4.1336    6.0667  -16.9606 N   0  0  0  0  0  0  0  0  0  0  0  0
   -5.1002    5.6797  -17.8310 N   0  0  0  0  0  0  0  0  0  0  0  0
   -5.1372    6.2401  -19.1741 C   0  0  0  0  0  0  0  0  0  0  0  0
   -4.3617    5.4837  -20.2130 C   0  0  0  0  0  0  0  0  0  0  0  0
   -3.0074    5.7637  -20.4423 C   0  0  0  0  0  0  0  0  0  0  0  0
   -2.3313    5.1544  -21.4999 C   0  0  0  0  0  0  0  0  0  0  0  0
   -2.9957    4.2476  -22.3225 C   0  0  0  0  0  0  0  0  0  0  0  0
   -4.3272    3.9286  -22.0732 C   0  0  0  0  0  0  0  0  0  0  0  0
   -5.0108    4.5474  -21.0285 C   0  0  0  0  0  0  0  0  0  0  0  0
   -6.1831    5.1155  -17.2091 C   0  0  0  0  0  0  0  0  0  0  0  0
   -7.2693    4.6245  -17.8198 N   0  0  0  0  0  0  0  0  0  0  0  0
   -8.2833    4.2563  -17.0068 C   0  0  0  0  0  0  0  0  0  0  0  0
   -9.5591    3.7698  -17.6564 C   0  0  0  0  0  0  0  0  0  0  0  0
   -9.5055    2.6149  -18.6265 C   0  0  0  0  0  0  0  0  0  0  0  0
   -9.8175    3.9930  -19.1259 C   0  0  0  0  0  0  0  0  0  0  0  0
   -8.2146    4.3983  -15.6171 C   0  0  0  0  0  0  0  0  0  0  0  0
   -7.0615    4.9252  -15.0158 C   0  0  0  0  0  0  0  0  0  0  0  0
   -7.0573    5.3021  -13.5797 C   0  0  0  0  0  0  0  0  0  0  0  0
   -6.6294    6.3524  -13.3005 O   0  0  0  0  0  0  0  0  0  0  0  0
   -7.6430    4.1868  -12.6812 N   0  0  0  0  0  0  0  0  0  0  0  0
   -7.9028    4.1703  -11.3097 C   0  0  0  0  0  0  0  0  0  0  0  0
   -7.6592    5.3087  -10.5161 C   0  0  0  0  0  0  0  0  0  0  0  0
   -7.8655    5.2808   -9.1329 C   0  0  0  0  0  0  0  0  0  0  0  0
   -8.3160    4.0990   -8.5821 C   0  0  0  0  0  0  0  0  0  0  0  0
   -8.5788    2.9680   -9.3505 C   0  0  0  0  0  0  0  0  0  0  0  0
   -8.3823    2.9906  -10.7241 C   0  0  0  0  0  0  0  0  0  0  0  0
   -9.0084    1.8496   -8.4604 C   0  0  0  0  0  0  0  0  0  0  0  0
   -9.0730    2.4803   -7.1583 N   0  0  0  0  0  0  0  0  0  0  0  0
   -8.5707    3.7638   -7.1753 C   0  0  0  0  0  0  0  0  0  0  0  0
   -8.3487    4.4869   -6.2225 O   0  0  0  0  0  0  0  0  0  0  0  0
   -5.9848    5.2762  -15.8496 C   0  0  0  0  0  0  0  0  0  0  0  0
  1  2  1  0
  2  3  2  0
  3  4  1  0
  4  5  1  0
  5  6  1  0
  6  7  2  0
  7  8  1  0
  8  9  2  0
  9 10  1  0
 10 11  2  0
  4 12  1  0
 12 13  2  0
 13 14  1  0
 14 15  1  0
 15 16  1  0
 16 17  1  0
 14 18  2  0
 18 19  1  0
 19 20  1  0
 20 21  2  0
 20 22  1  0
 22 23  1  0
 23 24  2  0
 24 25  1  0
 25 26  2  0
 26 27  1  0
 27 28  2  0
 27 29  1  0
 29 30  1  0
 30 31  1  0
 31 32  2  0
 19 33  2  0
 33  2  1  0
 11  6  1  0
 33 12  1  0
 17 15  1  0
 28 23  1  0
 31 26  1  0
M  END
>  <name>  (742) 
P125638

>  <alias>  (742) 
None

>  <smina_score_min>  (742) 
-10.011

>  <exports>  (742) 
['/opt/xchem-fragalysis-2/maxwin/BulkDock/OUTPUTS/openbind_xx01zvns2b_c2_elabs_1LOUTNY.sdf', '/opt/xchem-fragalysis-2/maxwin/BulkDock/OUTPUTS/openbind_xx01zvns2b_c2_elabs_1LSYIIV.sdf']

>  <tags>  (742) 
syndirella_placed,openbind_xx01zvns2b_c2_elabs,openbind_xx01zvns2b_c2_elabs_scored_6.2plus,syndirella_product,openbind_xx01zvns2b_c2_elabs_scored,openbind_xx01zvns2b_c2_elabs_scored_top80percent,BulkDock Fragalysis export

>  <subsites>  (742) 
1 - Z4590/B/203/1

>  <smiles>  (742) 
Cc1nn(Cc2ccccc2)c2nc(C3CC3)cc(C(=O)Nc3ccc4c(c3)CNC4=O)c12

>  <HIPPO Pose ID>  (742) 
125638

>  <energy_score>  (742) 
-21.008154

>  <inchikey>  (742) 
BKCQDAZQGDBDNP-UHFFFAOYSA-N

>  <gnina_score_min>  (742) 
6.581

>  <gnina_score>  (742) 
6.541

>  <ref_mols>  (742) 
Z3559a

>  <HIPPO Compound ID>  (742) 
179622

>  <distance_score>  (742) 
0.374573

>  <rmsd(smina/fragmenstein)>  (742) 
0.233

>  <ref_pdb>  (742) 
Z3559a

>  <inspiration_score>  (742) 
None

$$$$
P125639
     RDKit          3D

 33 38  0  0  0  0  0  0  0  0999 V2000
   -3.9554    6.0920  -14.4833 C   0  0  0  0  0  0  0  0  0  0  0  0
   -4.7264    5.7745  -15.7120 C   0  0  0  0  0  0  0  0  0  0  0  0
   -4.1833    6.0404  -16.9138 N   0  0  0  0  0  0  0  0  0  0  0  0
   -5.1391    5.6476  -17.7934 N   0  0  0  0  0  0  0  0  0  0  0  0
   -5.1718    6.2037  -19.1389 C   0  0  0  0  0  0  0  0  0  0  0  0
   -4.3008    5.5147  -20.1498 C   0  0  0  0  0  0  0  0  0  0  0  0
   -2.9373    5.8223  -20.2452 C   0  0  0  0  0  0  0  0  0  0  0  0
   -2.1663    5.2888  -21.2776 C   0  0  0  0  0  0  0  0  0  0  0  0
   -2.7440    4.4280  -22.2087 C   0  0  0  0  0  0  0  0  0  0  0  0
   -4.0884    4.0822  -22.0983 C   0  0  0  0  0  0  0  0  0  0  0  0
   -4.8656    4.6268  -21.0767 C   0  0  0  0  0  0  0  0  0  0  0  0
   -6.2250    5.0794  -17.1813 C   0  0  0  0  0  0  0  0  0  0  0  0
   -7.3055    4.5964  -17.8058 N   0  0  0  0  0  0  0  0  0  0  0  0
   -8.3295    4.2301  -17.0064 C   0  0  0  0  0  0  0  0  0  0  0  0
   -9.6007    3.7633  -17.6766 C   0  0  0  0  0  0  0  0  0  0  0  0
   -9.8218    3.9717  -19.1544 C   0  0  0  0  0  0  0  0  0  0  0  0
   -9.5479    2.5948  -18.6298 C   0  0  0  0  0  0  0  0  0  0  0  0
   -8.2735    4.3584  -15.6148 C   0  0  0  0  0  0  0  0  0  0  0  0
   -7.1227    4.8684  -14.9944 C   0  0  0  0  0  0  0  0  0  0  0  0
   -7.1292    5.2460  -13.5566 C   0  0  0  0  0  0  0  0  0  0  0  0
   -6.6963    6.2996  -13.2927 O   0  0  0  0  0  0  0  0  0  0  0  0
   -7.7975    4.1788  -12.6516 N   0  0  0  0  0  0  0  0  0  0  0  0
   -7.9790    4.1487  -11.2666 C   0  0  0  0  0  0  0  0  0  0  0  0
   -7.5321    5.2209  -10.4674 C   0  0  0  0  0  0  0  0  0  0  0  0
   -7.6870    5.2128   -9.0749 C   0  0  0  0  0  0  0  0  0  0  0  0
   -8.2985    4.1196   -8.4965 C   0  0  0  0  0  0  0  0  0  0  0  0
   -8.7574    3.0720   -9.2948 C   0  0  0  0  0  0  0  0  0  0  0  0
   -8.6087    3.0524  -10.6732 C   0  0  0  0  0  0  0  0  0  0  0  0
   -9.3973    2.0945   -8.4050 C   0  0  0  0  0  0  0  0  0  0  0  0
   -9.9564    1.0725   -8.7388 O   0  0  0  0  0  0  0  0  0  0  0  0
   -9.2840    2.5810   -7.1194 N   0  0  0  0  0  0  0  0  0  0  0  0
   -8.5802    3.8313   -7.0611 C   0  0  0  0  0  0  0  0  0  0  0  0
   -6.0380    5.2276  -15.8190 C   0  0  0  0  0  0  0  0  0  0  0  0
  1  2  1  0
  2  3  2  0
  3  4  1  0
  4  5  1  0
  5  6  1  0
  6  7  2  0
  7  8  1  0
  8  9  2  0
  9 10  1  0
 10 11  2  0
  4 12  1  0
 12 13  2  0
 13 14  1  0
 14 15  1  0
 15 16  1  0
 16 17  1  0
 14 18  2  0
 18 19  1  0
 19 20  1  0
 20 21  2  0
 20 22  1  0
 22 23  1  0
 23 24  2  0
 24 25  1  0
 25 26  2  0
 26 27  1  0
 27 28  2  0
 27 29  1  0
 29 30  2  0
 29 31  1  0
 31 32  1  0
 19 33  2  0
 33  2  1  0
 11  6  1  0
 33 12  1  0
 17 15  1  0
 28 23  1  0
 32 26  1  0
M  END
>  <name>  (743) 
P125639

>  <alias>  (743) 
None

>  <smina_score_min>  (743) 
-9.796

>  <exports>  (743) 
['/opt/xchem-fragalysis-2/maxwin/BulkDock/OUTPUTS/openbind_xx01zvns2b_c2_elabs_1LOUTNY.sdf', '/opt/xchem-fragalysis-2/maxwin/BulkDock/OUTPUTS/openbind_xx01zvns2b_c2_elabs_1LSYIIV.sdf']

>  <tags>  (743) 
syndirella_placed,openbind_xx01zvns2b_c2_elabs,openbind_xx01zvns2b_c2_elabs_scored_6.2plus,syndirella_product,openbind_xx01zvns2b_c2_elabs_scored,openbind_xx01zvns2b_c2_elabs_scored_top80percent,BulkDock Fragalysis export

>  <subsites>  (743) 
1 - Z4590/B/203/1

>  <smiles>  (743) 
Cc1nn(Cc2ccccc2)c2nc(C3CC3)cc(C(=O)Nc3ccc4c(c3)C(=O)NC4)c12

>  <HIPPO Pose ID>  (743) 
125639

>  <energy_score>  (743) 
-38.334545

>  <inchikey>  (743) 
GAHJPGYKDZIZQJ-UHFFFAOYSA-N

>  <gnina_score_min>  (743) 
6.431

>  <gnina_score>  (743) 
6.522

>  <ref_mols>  (743) 
Z3559a

>  <HIPPO Compound ID>  (743) 
179629

>  <distance_score>  (743) 
0.36715

>  <rmsd(smina/fragmenstein)>  (743) 
0.322

>  <ref_pdb>  (743) 
Z3559a

>  <inspiration_score>  (743) 
None

$$$$
P125640
     RDKit          3D

 33 37  0  0  0  0  0  0  0  0999 V2000
   -2.2801    5.0064  -19.3420 C   0  0  0  0  0  0  0  0  0  0  0  0
   -3.6449    5.3919  -19.8924 C   0  0  0  0  0  0  0  0  0  0  0  0
   -4.4283    6.3990  -19.0446 C   0  0  2  0  0  0  0  0  0  0  0  0
   -3.7843    7.7923  -19.0716 C   0  0  0  0  0  0  0  0  0  0  0  0
   -4.7161    5.9389  -17.6892 N   0  0  0  0  0  0  0  0  0  0  0  0
   -3.9662    6.3439  -16.6335 N   0  0  0  0  0  0  0  0  0  0  0  0
   -4.7363    6.0516  -15.5777 C   0  0  0  0  0  0  0  0  0  0  0  0
   -5.9430    5.4167  -15.9366 C   0  0  0  0  0  0  0  0  0  0  0  0
   -7.1304    4.9885  -15.3278 C   0  0  0  0  0  0  0  0  0  0  0  0
   -7.3716    5.4202  -13.9340 C   0  0  0  0  0  0  0  0  0  0  0  0
   -7.2507    6.5627  -13.7215 O   0  0  0  0  0  0  0  0  0  0  0  0
   -7.6483    4.2462  -12.9694 N   0  0  0  0  0  0  0  0  0  0  0  0
   -7.9198    4.2425  -11.5968 C   0  0  0  0  0  0  0  0  0  0  0  0
   -7.7944    5.4361  -10.8619 C   0  0  0  0  0  0  0  0  0  0  0  0
   -7.9935    5.4619   -9.4810 C   0  0  0  0  0  0  0  0  0  0  0  0
   -8.3207    4.2790   -8.8500 C   0  0  0  0  0  0  0  0  0  0  0  0
   -8.4586    3.0933   -9.5632 C   0  0  0  0  0  0  0  0  0  0  0  0
   -8.2619    3.0552  -10.9405 C   0  0  0  0  0  0  0  0  0  0  0  0
   -8.8330    1.9916   -8.6185 C   0  0  0  0  0  0  0  0  0  0  0  0
   -8.8633    2.6137   -7.2675 N   0  0  0  0  0  0  0  0  0  0  0  0
  -10.0587    2.2364   -6.4992 C   0  0  0  0  0  0  0  0  0  0  0  0
  -10.4464    3.0164   -5.2332 C   0  0  0  0  0  0  0  0  0  0  0  0
  -11.4737    2.4126   -4.5903 F   0  0  0  0  0  0  0  0  0  0  0  0
  -10.8910    4.2645   -5.5452 F   0  0  0  0  0  0  0  0  0  0  0  0
   -9.4337    3.1780   -4.3558 F   0  0  0  0  0  0  0  0  0  0  0  0
   -8.6044    4.0499   -7.4052 C   0  0  0  0  0  0  0  0  0  0  0  0
   -8.1191    4.4127  -16.1401 C   0  0  0  0  0  0  0  0  0  0  0  0
   -7.9043    4.3185  -17.5289 C   0  0  0  0  0  0  0  0  0  0  0  0
   -8.9050    3.7979  -18.5300 C   0  0  0  0  0  0  0  0  0  0  0  0
   -9.5039    2.4386  -18.3422 C   0  0  0  0  0  0  0  0  0  0  0  0
  -10.3725    3.6711  -18.2816 C   0  0  0  0  0  0  0  0  0  0  0  0
   -6.7751    4.7636  -18.1202 N   0  0  0  0  0  0  0  0  0  0  0  0
   -5.8632    5.2966  -17.3064 C   0  0  0  0  0  0  0  0  0  0  0  0
  1  2  1  0
  2  3  1  0
  3  4  1  1
  3  5  1  0
  5  6  1  0
  6  7  2  0
  7  8  1  0
  8  9  2  0
  9 10  1  0
 10 11  2  0
 10 12  1  0
 12 13  1  0
 13 14  2  0
 14 15  1  0
 15 16  2  0
 16 17  1  0
 17 18  2  0
 17 19  1  0
 19 20  1  0
 20 21  1  0
 21 22  1  0
 22 23  1  0
 22 24  1  0
 22 25  1  0
 20 26  1  0
  9 27  1  0
 27 28  2  0
 28 29  1  0
 29 30  1  0
 30 31  1  0
 28 32  1  0
 32 33  2  0
 33  5  1  0
 33  8  1  0
 18 13  1  0
 31 29  1  0
 26 16  1  0
M  END
>  <name>  (744) 
P125640

>  <alias>  (744) 
None

>  <smina_score_min>  (744) 
-9.889

>  <exports>  (744) 
['/opt/xchem-fragalysis-2/maxwin/BulkDock/OUTPUTS/openbind_xx01zvns2b_c2_elabs_1LOUTNY.sdf', '/opt/xchem-fragalysis-2/maxwin/BulkDock/OUTPUTS/openbind_xx01zvns2b_c2_elabs_1LSYIIV.sdf']

>  <tags>  (744) 
syndirella_placed,openbind_xx01zvns2b_c2_elabs,openbind_xx01zvns2b_c2_elabs_scored_6.2plus,syndirella_product,openbind_xx01zvns2b_c2_elabs_scored,openbind_xx01zvns2b_c2_elabs_scored_top80percent,BulkDock Fragalysis export

>  <subsites>  (744) 
1 - Z4590/B/203/1

>  <smiles>  (744) 
CC[C@H](C)n1ncc2c(C(=O)Nc3ccc4c(c3)CN(CC(F)(F)F)C4)cc(C3CC3)nc21

>  <HIPPO Pose ID>  (744) 
125640

>  <energy_score>  (744) 
-36.702614

>  <inchikey>  (744) 
DNHQHTLCFHQWMG-AWEZNQCLSA-N

>  <gnina_score_min>  (744) 
6.743

>  <gnina_score>  (744) 
6.7

>  <ref_mols>  (744) 
Z3559a

>  <HIPPO Compound ID>  (744) 
179866

>  <distance_score>  (744) 
0.684436

>  <rmsd(smina/fragmenstein)>  (744) 
0.777

>  <ref_pdb>  (744) 
Z3559a

>  <inspiration_score>  (744) 
None

$$$$
P125644
     RDKit          3D

 33 37  0  0  0  0  0  0  0  0999 V2000
   -9.9523    5.7635   -5.3674 C   0  0  0  0  0  0  0  0  0  0  0  0
  -10.3902    4.3863   -4.8973 C   0  0  0  0  0  0  0  0  0  0  0  0
   -9.2860    3.3409   -4.8327 C   0  0  0  0  0  0  0  0  0  0  0  0
   -9.2036    2.4386   -6.0667 C   0  0  0  0  0  0  0  0  0  0  0  0
   -8.9363    3.1234   -7.2997 N   0  0  0  0  0  0  0  0  0  0  0  0
   -9.1456    2.4276   -8.5669 C   0  0  0  0  0  0  0  0  0  0  0  0
   -8.4708    3.3350   -9.5370 C   0  0  0  0  0  0  0  0  0  0  0  0
   -8.4354    3.3177  -10.9180 C   0  0  0  0  0  0  0  0  0  0  0  0
   -7.7130    4.3324  -11.5565 C   0  0  0  0  0  0  0  0  0  0  0  0
   -7.6188    4.3430  -12.9393 N   0  0  0  0  0  0  0  0  0  0  0  0
   -6.8994    5.3268  -13.8884 C   0  0  0  0  0  0  0  0  0  0  0  0
   -6.3382    6.3252  -13.6601 O   0  0  0  0  0  0  0  0  0  0  0  0
   -7.0101    4.9378  -15.3068 C   0  0  0  0  0  0  0  0  0  0  0  0
   -8.1839    4.4200  -15.8605 C   0  0  0  0  0  0  0  0  0  0  0  0
   -8.2878    4.2615  -17.2442 C   0  0  0  0  0  0  0  0  0  0  0  0
   -9.5877    3.7676  -17.8292 C   0  0  0  0  0  0  0  0  0  0  0  0
   -9.8681    3.8918  -19.3020 C   0  0  0  0  0  0  0  0  0  0  0  0
   -9.5799    2.5444  -18.7082 C   0  0  0  0  0  0  0  0  0  0  0  0
   -7.2967    4.6144  -18.0985 N   0  0  0  0  0  0  0  0  0  0  0  0
   -6.1924    5.1113  -17.5239 C   0  0  0  0  0  0  0  0  0  0  0  0
   -5.9615    5.2666  -16.1729 C   0  0  0  0  0  0  0  0  0  0  0  0
   -4.6546    5.7917  -16.0984 C   0  0  0  0  0  0  0  0  0  0  0  0
   -4.1028    5.9829  -17.3026 N   0  0  0  0  0  0  0  0  0  0  0  0
   -5.1071    5.6633  -18.1581 N   0  0  0  0  0  0  0  0  0  0  0  0
   -5.0765    6.0878  -19.5544 C   0  0  2  0  0  0  0  0  0  0  0  0
   -4.6128    4.9667  -20.4761 C   0  0  0  0  0  0  0  0  0  0  0  0
   -4.2384    7.3606  -19.8127 C   0  0  0  0  0  0  0  0  0  0  0  0
   -4.8217    8.6102  -19.1644 C   0  0  0  0  0  0  0  0  0  0  0  0
   -7.0600    5.3407  -10.8195 C   0  0  0  0  0  0  0  0  0  0  0  0
   -7.0778    5.3359   -9.4338 C   0  0  0  0  0  0  0  0  0  0  0  0
   -7.7760    4.3169   -8.8349 C   0  0  0  0  0  0  0  0  0  0  0  0
   -7.9338    4.0721   -7.4119 C   0  0  0  0  0  0  0  0  0  0  0  0
   -7.2718    4.6331   -6.5559 O   0  0  0  0  0  0  0  0  0  0  0  0
  1  2  1  0
  2  3  1  0
  3  4  1  0
  4  5  1  0
  5  6  1  0
  6  7  1  0
  7  8  2  0
  8  9  1  0
  9 10  1  0
 10 11  1  0
 11 12  2  0
 11 13  1  0
 13 14  2  0
 14 15  1  0
 15 16  1  0
 16 17  1  0
 17 18  1  0
 15 19  2  0
 19 20  1  0
 20 21  2  0
 21 22  1  0
 22 23  2  0
 23 24  1  0
 24 25  1  0
 25 26  1  6
 25 27  1  0
 27 28  1  0
  9 29  2  0
 29 30  1  0
 30 31  2  0
 31 32  1  0
 32 33  2  0
 32  5  1  0
 31  7  1  0
 21 13  1  0
 18 16  1  0
 24 20  1  0
M  END
>  <name>  (745) 
P125644

>  <alias>  (745) 
None

>  <smina_score_min>  (745) 
-8.861

>  <exports>  (745) 
['/opt/xchem-fragalysis-2/maxwin/BulkDock/OUTPUTS/openbind_xx01zvns2b_c2_elabs_1LOUTNY.sdf', '/opt/xchem-fragalysis-2/maxwin/BulkDock/OUTPUTS/openbind_xx01zvns2b_c2_elabs_1LSYIIV.sdf']

>  <tags>  (745) 
syndirella_placed,openbind_xx01zvns2b_c2_elabs,openbind_xx01zvns2b_c2_elabs_scored_6.2plus,syndirella_product,openbind_xx01zvns2b_c2_elabs_scored,openbind_xx01zvns2b_c2_elabs_scored_top80percent,BulkDock Fragalysis export

>  <subsites>  (745) 
1 - Z4590/B/203/1

>  <smiles>  (745) 
CCCCN1Cc2cc(NC(=O)c3cc(C4CC4)nc4c3cnn4[C@H](C)CC)ccc2C1=O

>  <HIPPO Pose ID>  (745) 
125644

>  <energy_score>  (745) 
-38.330672

>  <inchikey>  (745) 
QLEBHDTYXQIZGC-MRXNPFEDSA-N

>  <gnina_score_min>  (745) 
6.545

>  <gnina_score>  (745) 
6.403

>  <ref_mols>  (745) 
Z3559a

>  <HIPPO Compound ID>  (745) 
179868

>  <distance_score>  (745) 
0.660548

>  <rmsd(smina/fragmenstein)>  (745) 
1.29

>  <ref_pdb>  (745) 
Z3559a

>  <inspiration_score>  (745) 
None

$$$$
P125648
     RDKit          3D

 33 37  0  0  0  0  0  0  0  0999 V2000
  -12.1649    2.2318   -5.1558 C   0  0  0  0  0  0  0  0  0  0  0  0
  -10.7972    1.8723   -5.6352 C   0  0  0  0  0  0  0  0  0  0  0  0
   -9.8234    2.9631   -5.2490 C   0  0  0  0  0  0  0  0  0  0  0  0
   -8.5225    2.7104   -5.9690 C   0  0  0  0  0  0  0  0  0  0  0  0
   -8.5404    3.3119   -7.2684 N   0  0  0  0  0  0  0  0  0  0  0  0
   -8.7374    2.5591   -8.5035 C   0  0  0  0  0  0  0  0  0  0  0  0
   -8.4183    3.5978   -9.5256 C   0  0  0  0  0  0  0  0  0  0  0  0
   -8.3337    3.5022  -10.9000 C   0  0  0  0  0  0  0  0  0  0  0  0
   -7.9752    4.6597  -11.5995 C   0  0  0  0  0  0  0  0  0  0  0  0
   -7.7916    4.6015  -12.9707 N   0  0  0  0  0  0  0  0  0  0  0  0
   -7.2583    5.6600  -13.9545 C   0  0  0  0  0  0  0  0  0  0  0  0
   -6.9614    6.7739  -13.7789 O   0  0  0  0  0  0  0  0  0  0  0  0
   -7.1451    5.1214  -15.3123 C   0  0  0  0  0  0  0  0  0  0  0  0
   -8.2449    4.5107  -15.9115 C   0  0  0  0  0  0  0  0  0  0  0  0
   -8.2101    4.2221  -17.2732 C   0  0  0  0  0  0  0  0  0  0  0  0
   -9.4813    3.7341  -17.9269 C   0  0  0  0  0  0  0  0  0  0  0  0
   -9.4866    2.4598  -18.7238 C   0  0  0  0  0  0  0  0  0  0  0  0
   -9.6346    3.7800  -19.4216 C   0  0  0  0  0  0  0  0  0  0  0  0
   -7.1178    4.4606  -18.0448 N   0  0  0  0  0  0  0  0  0  0  0  0
   -6.0807    5.0434  -17.4176 C   0  0  0  0  0  0  0  0  0  0  0  0
   -6.0106    5.3941  -16.0815 C   0  0  0  0  0  0  0  0  0  0  0  0
   -4.7313    5.9895  -15.9239 C   0  0  0  0  0  0  0  0  0  0  0  0
   -4.1023    6.5363  -14.6954 C   0  0  0  0  0  0  0  0  0  0  0  0
   -4.0636    6.0457  -17.0840 N   0  0  0  0  0  0  0  0  0  0  0  0
   -4.8967    5.4521  -17.9714 N   0  0  0  0  0  0  0  0  0  0  0  0
   -4.4994    5.3366  -19.3605 C   0  0  0  0  0  0  0  0  0  0  0  0
   -2.9893    5.1396  -19.5223 C   0  0  0  0  0  0  0  0  0  0  0  0
   -2.6642    4.5993  -20.8062 O   0  0  0  0  0  0  0  0  0  0  0  0
   -7.7572    5.8850  -10.9367 C   0  0  0  0  0  0  0  0  0  0  0  0
   -7.8465    5.9754   -9.5583 C   0  0  0  0  0  0  0  0  0  0  0  0
   -8.1613    4.8176   -8.8929 C   0  0  0  0  0  0  0  0  0  0  0  0
   -8.2267    4.6316   -7.4546 C   0  0  0  0  0  0  0  0  0  0  0  0
   -8.0014    5.4934   -6.6255 O   0  0  0  0  0  0  0  0  0  0  0  0
  1  2  1  0
  2  3  1  0
  3  4  1  0
  4  5  1  0
  5  6  1  0
  6  7  1  0
  7  8  2  0
  8  9  1  0
  9 10  1  0
 10 11  1  0
 11 12  2  0
 11 13  1  0
 13 14  2  0
 14 15  1  0
 15 16  1  0
 16 17  1  0
 17 18  1  0
 15 19  2  0
 19 20  1  0
 20 21  2  0
 21 22  1  0
 22 23  1  0
 22 24  2  0
 24 25  1  0
 25 26  1  0
 26 27  1  0
 27 28  1  0
  9 29  2  0
 29 30  1  0
 30 31  2  0
 31 32  1  0
 32 33  2  0
 32  5  1  0
 31  7  1  0
 21 13  1  0
 18 16  1  0
 25 20  1  0
M  END
>  <name>  (746) 
P125648

>  <alias>  (746) 
None

>  <smina_score_min>  (746) 
-8.207

>  <exports>  (746) 
['/opt/xchem-fragalysis-2/maxwin/BulkDock/OUTPUTS/openbind_xx01zvns2b_c2_elabs_1LOUTNY.sdf', '/opt/xchem-fragalysis-2/maxwin/BulkDock/OUTPUTS/openbind_xx01zvns2b_c2_elabs_1LSYIIV.sdf']

>  <tags>  (746) 
syndirella_placed,openbind_xx01zvns2b_c2_elabs,openbind_xx01zvns2b_c2_elabs_scored_6.2plus,syndirella_product,openbind_xx01zvns2b_c2_elabs_scored,openbind_xx01zvns2b_c2_elabs_scored_top80percent,BulkDock Fragalysis export

>  <subsites>  (746) 
1 - Z4590/B/203/1

>  <smiles>  (746) 
CCCCN1Cc2cc(NC(=O)c3cc(C4CC4)nc4c3c(C)nn4CCO)ccc2C1=O

>  <HIPPO Pose ID>  (746) 
125648

>  <energy_score>  (746) 
-40.668554

>  <inchikey>  (746) 
VDFKXEKGBDKTEX-UHFFFAOYSA-N

>  <gnina_score_min>  (746) 
6.227

>  <gnina_score>  (746) 
6.252

>  <ref_mols>  (746) 
Z3559a

>  <HIPPO Compound ID>  (746) 
179834

>  <distance_score>  (746) 
0.716501

>  <rmsd(smina/fragmenstein)>  (746) 
0.771

>  <ref_pdb>  (746) 
Z3559a

>  <inspiration_score>  (746) 
None

$$$$
P125655
     RDKit          3D

 33 37  0  0  0  0  0  0  0  0999 V2000
   -3.9586    6.2396  -14.7160 C   0  0  0  0  0  0  0  0  0  0  0  0
   -4.6894    5.7826  -15.9249 C   0  0  0  0  0  0  0  0  0  0  0  0
   -4.0840    5.8412  -17.1235 N   0  0  0  0  0  0  0  0  0  0  0  0
   -5.0149    5.3582  -17.9723 N   0  0  0  0  0  0  0  0  0  0  0  0
   -4.7976    5.3934  -19.4000 C   0  0  0  0  0  0  0  0  0  0  0  0
   -5.2020    6.7388  -19.9790 C   0  0  0  0  0  0  0  0  0  0  0  0
   -5.4337    6.6400  -21.3813 O   0  0  0  0  0  0  0  0  0  0  0  0
   -6.1711    4.9713  -17.3609 C   0  0  0  0  0  0  0  0  0  0  0  0
   -7.2556    4.4635  -17.9636 N   0  0  0  0  0  0  0  0  0  0  0  0
   -8.3130    4.2247  -17.1522 C   0  0  0  0  0  0  0  0  0  0  0  0
   -9.5982    3.7502  -17.7850 C   0  0  0  0  0  0  0  0  0  0  0  0
   -9.8295    3.9034  -19.2652 C   0  0  0  0  0  0  0  0  0  0  0  0
   -9.5790    2.5427  -18.6857 C   0  0  0  0  0  0  0  0  0  0  0  0
   -8.2774    4.4793  -15.7810 C   0  0  0  0  0  0  0  0  0  0  0  0
   -7.1234    5.0198  -15.2055 C   0  0  0  0  0  0  0  0  0  0  0  0
   -7.1291    5.5029  -13.8186 C   0  0  0  0  0  0  0  0  0  0  0  0
   -6.7571    6.5927  -13.6280 O   0  0  0  0  0  0  0  0  0  0  0  0
   -7.6805    4.4476  -12.8363 N   0  0  0  0  0  0  0  0  0  0  0  0
   -7.7968    4.4769  -11.4538 C   0  0  0  0  0  0  0  0  0  0  0  0
   -7.3126    5.5943  -10.7493 C   0  0  0  0  0  0  0  0  0  0  0  0
   -7.3905    5.6598   -9.3650 C   0  0  0  0  0  0  0  0  0  0  0  0
   -7.9789    4.6007   -8.7157 C   0  0  0  0  0  0  0  0  0  0  0  0
   -8.4870    3.4935   -9.4055 C   0  0  0  0  0  0  0  0  0  0  0  0
   -8.3876    3.4036  -10.7817 C   0  0  0  0  0  0  0  0  0  0  0  0
   -9.1150    2.5608   -8.4139 C   0  0  0  0  0  0  0  0  0  0  0  0
   -9.2507    3.4193   -7.2117 N   0  0  0  0  0  0  0  0  0  0  0  0
   -9.3119    2.6916   -5.9505 C   0  0  0  0  0  0  0  0  0  0  0  0
  -10.6863    2.1005   -5.6594 C   0  0  0  0  0  0  0  0  0  0  0  0
  -10.9193    1.0108   -6.4096 F   0  0  0  0  0  0  0  0  0  0  0  0
  -10.8025    1.7685   -4.3631 F   0  0  0  0  0  0  0  0  0  0  0  0
  -11.6602    3.0154   -5.8920 F   0  0  0  0  0  0  0  0  0  0  0  0
   -8.1974    4.4237   -7.2573 C   0  0  0  0  0  0  0  0  0  0  0  0
   -6.0130    5.2667  -16.0223 C   0  0  0  0  0  0  0  0  0  0  0  0
  1  2  1  0
  2  3  2  0
  3  4  1  0
  4  5  1  0
  5  6  1  0
  6  7  1  0
  4  8  1  0
  8  9  2  0
  9 10  1  0
 10 11  1  0
 11 12  1  0
 12 13  1  0
 10 14  2  0
 14 15  1  0
 15 16  1  0
 16 17  2  0
 16 18  1  0
 18 19  1  0
 19 20  2  0
 20 21  1  0
 21 22  2  0
 22 23  1  0
 23 24  2  0
 23 25  1  0
 25 26  1  0
 26 27  1  0
 27 28  1  0
 28 29  1  0
 28 30  1  0
 28 31  1  0
 26 32  1  0
 15 33  2  0
 33  2  1  0
 33  8  1  0
 13 11  1  0
 24 19  1  0
 32 22  1  0
M  END
>  <name>  (747) 
P125655

>  <alias>  (747) 
None

>  <smina_score_min>  (747) 
-9.757

>  <exports>  (747) 
['/opt/xchem-fragalysis-2/maxwin/BulkDock/OUTPUTS/openbind_xx01zvns2b_c2_elabs_1LOUTNY.sdf', '/opt/xchem-fragalysis-2/maxwin/BulkDock/OUTPUTS/openbind_xx01zvns2b_c2_elabs_1LSYIIV.sdf']

>  <tags>  (747) 
syndirella_placed,openbind_xx01zvns2b_c2_elabs,openbind_xx01zvns2b_c2_elabs_scored_6.2plus,syndirella_product,openbind_xx01zvns2b_c2_elabs_scored,openbind_xx01zvns2b_c2_elabs_scored_top80percent,BulkDock Fragalysis export

>  <subsites>  (747) 
1 - Z4590/B/203/1

>  <smiles>  (747) 
Cc1nn(CCO)c2nc(C3CC3)cc(C(=O)Nc3ccc4c(c3)CN(CC(F)(F)F)C4)c12

>  <HIPPO Pose ID>  (747) 
125655

>  <energy_score>  (747) 
-27.104439

>  <inchikey>  (747) 
LWRVAWRWODHNMK-UHFFFAOYSA-N

>  <gnina_score_min>  (747) 
6.44

>  <gnina_score>  (747) 
6.211

>  <ref_mols>  (747) 
Z3559a

>  <HIPPO Compound ID>  (747) 
179780

>  <distance_score>  (747) 
0.632217

>  <rmsd(smina/fragmenstein)>  (747) 
1.138

>  <ref_pdb>  (747) 
Z3559a

>  <inspiration_score>  (747) 
None

$$$$
P125656
     RDKit          3D

 33 37  0  0  0  0  0  0  0  0999 V2000
   -8.4201    4.8868   -1.9556 C   0  0  0  0  0  0  0  0  0  0  0  0
   -9.4290    4.7809   -2.9497 O   0  0  0  0  0  0  0  0  0  0  0  0
   -9.1387    3.7322   -3.8842 C   0  0  0  0  0  0  0  0  0  0  0  0
  -10.3120    3.6174   -4.8454 C   0  0  0  0  0  0  0  0  0  0  0  0
  -10.1003    2.6910   -6.0528 C   0  0  0  0  0  0  0  0  0  0  0  0
   -8.9471    2.9798   -6.9033 N   0  0  0  0  0  0  0  0  0  0  0  0
   -8.6621    4.3989   -7.1254 C   0  0  0  0  0  0  0  0  0  0  0  0
   -8.3263    4.5311   -8.5649 C   0  0  0  0  0  0  0  0  0  0  0  0
   -7.9244    5.6730   -9.2240 C   0  0  0  0  0  0  0  0  0  0  0  0
   -7.7163    5.5881  -10.5930 C   0  0  0  0  0  0  0  0  0  0  0  0
   -7.9046    4.3773  -11.2819 C   0  0  0  0  0  0  0  0  0  0  0  0
   -7.6593    4.3451  -12.6527 N   0  0  0  0  0  0  0  0  0  0  0  0
   -7.2247    5.4687  -13.6215 C   0  0  0  0  0  0  0  0  0  0  0  0
   -6.9298    6.5787  -13.4098 O   0  0  0  0  0  0  0  0  0  0  0  0
   -7.1397    5.0121  -15.0169 C   0  0  0  0  0  0  0  0  0  0  0  0
   -8.2472    4.4540  -15.6539 C   0  0  0  0  0  0  0  0  0  0  0  0
   -8.2185    4.2451  -17.0346 C   0  0  0  0  0  0  0  0  0  0  0  0
   -9.4775    3.7571  -17.7195 C   0  0  0  0  0  0  0  0  0  0  0  0
   -9.4121    2.5978  -18.6797 C   0  0  0  0  0  0  0  0  0  0  0  0
   -9.7080    3.9759  -19.1911 C   0  0  0  0  0  0  0  0  0  0  0  0
   -7.1321    4.5388  -17.7980 N   0  0  0  0  0  0  0  0  0  0  0  0
   -6.0817    5.0651  -17.1384 C   0  0  0  0  0  0  0  0  0  0  0  0
   -6.0042    5.3172  -15.7787 C   0  0  0  0  0  0  0  0  0  0  0  0
   -4.7080    5.8627  -15.5811 C   0  0  0  0  0  0  0  0  0  0  0  0
   -4.0622    6.2947  -14.3155 C   0  0  0  0  0  0  0  0  0  0  0  0
   -4.0319    5.9688  -16.7319 N   0  0  0  0  0  0  0  0  0  0  0  0
   -4.8922    5.4986  -17.6668 N   0  0  0  0  0  0  0  0  0  0  0  0
   -4.4424    5.5324  -19.0444 C   0  0  0  0  0  0  0  0  0  0  0  0
   -5.5083    5.4233  -20.1177 C   0  0  0  0  0  0  0  0  0  0  0  0
   -5.9547    4.0806  -20.2631 O   0  0  0  0  0  0  0  0  0  0  0  0
   -8.3177    3.2261  -10.5965 C   0  0  0  0  0  0  0  0  0  0  0  0
   -8.5271    3.3235   -9.2258 C   0  0  0  0  0  0  0  0  0  0  0  0
   -9.0117    2.3033   -8.2340 C   0  0  0  0  0  0  0  0  0  0  0  0
  1  2  1  0
  2  3  1  0
  3  4  1  0
  4  5  1  0
  5  6  1  0
  6  7  1  0
  7  8  1  0
  8  9  2  0
  9 10  1  0
 10 11  2  0
 11 12  1  0
 12 13  1  0
 13 14  2  0
 13 15  1  0
 15 16  2  0
 16 17  1  0
 17 18  1  0
 18 19  1  0
 19 20  1  0
 17 21  2  0
 21 22  1  0
 22 23  2  0
 23 24  1  0
 24 25  1  0
 24 26  2  0
 26 27  1  0
 27 28  1  0
 28 29  1  0
 29 30  1  0
 11 31  1  0
 31 32  2  0
 32 33  1  0
 33  6  1  0
 32  8  1  0
 23 15  1  0
 20 18  1  0
 27 22  1  0
M  END
>  <name>  (748) 
P125656

>  <alias>  (748) 
None

>  <smina_score_min>  (748) 
-8.594

>  <exports>  (748) 
['/opt/xchem-fragalysis-2/maxwin/BulkDock/OUTPUTS/openbind_xx01zvns2b_c2_elabs_1LOUTNY.sdf', '/opt/xchem-fragalysis-2/maxwin/BulkDock/OUTPUTS/openbind_xx01zvns2b_c2_elabs_1LSYIIV.sdf']

>  <tags>  (748) 
syndirella_placed,openbind_xx01zvns2b_c2_elabs,openbind_xx01zvns2b_c2_elabs_scored_6.2plus,syndirella_product,openbind_xx01zvns2b_c2_elabs_scored,openbind_xx01zvns2b_c2_elabs_scored_top80percent,BulkDock Fragalysis export

>  <subsites>  (748) 
1 - Z4590/B/203/1

>  <smiles>  (748) 
COCCCN1Cc2ccc(NC(=O)c3cc(C4CC4)nc4c3c(C)nn4CCO)cc2C1

>  <HIPPO Pose ID>  (748) 
125656

>  <energy_score>  (748) 
-51.359411

>  <inchikey>  (748) 
ZLVIDUOHWASPGZ-UHFFFAOYSA-N

>  <gnina_score_min>  (748) 
6.494

>  <gnina_score>  (748) 
6.234

>  <ref_mols>  (748) 
Z3559a

>  <HIPPO Compound ID>  (748) 
179781

>  <distance_score>  (748) 
0.494916

>  <rmsd(smina/fragmenstein)>  (748) 
1.035

>  <ref_pdb>  (748) 
Z3559a

>  <inspiration_score>  (748) 
None

$$$$
P125657
     RDKit          3D

 33 38  0  0  0  0  0  0  0  0999 V2000
   -9.3084    4.6613   -0.9723 C   0  0  0  0  0  0  0  0  0  0  0  0
   -8.7040    4.7934   -2.2516 O   0  0  0  0  0  0  0  0  0  0  0  0
   -9.2753    3.8800   -3.1935 C   0  0  0  0  0  0  0  0  0  0  0  0
   -8.6107    4.0827   -4.5343 C   0  0  0  0  0  0  0  0  0  0  0  0
   -9.2912    3.3166   -5.6879 C   0  0  0  0  0  0  0  0  0  0  0  0
   -8.5100    3.5181   -6.8962 N   0  0  0  0  0  0  0  0  0  0  0  0
   -8.3514    4.9274   -7.2363 C   0  0  0  0  0  0  0  0  0  0  0  0
   -8.1778    4.9405   -8.7025 C   0  0  0  0  0  0  0  0  0  0  0  0
   -7.7926    6.0196   -9.4606 C   0  0  0  0  0  0  0  0  0  0  0  0
   -7.6833    5.8257  -10.8225 C   0  0  0  0  0  0  0  0  0  0  0  0
   -7.9595    4.5761  -11.4054 C   0  0  0  0  0  0  0  0  0  0  0  0
   -7.7921    4.4659  -12.7822 N   0  0  0  0  0  0  0  0  0  0  0  0
   -7.3590    5.5202  -13.8296 C   0  0  0  0  0  0  0  0  0  0  0  0
   -7.1499    6.6640  -13.7114 O   0  0  0  0  0  0  0  0  0  0  0  0
   -7.2522    4.9715  -15.1822 C   0  0  0  0  0  0  0  0  0  0  0  0
   -8.3739    4.4086  -15.7904 C   0  0  0  0  0  0  0  0  0  0  0  0
   -8.3596    4.1675  -17.1629 C   0  0  0  0  0  0  0  0  0  0  0  0
   -9.6265    3.7181  -17.8442 C   0  0  0  0  0  0  0  0  0  0  0  0
   -9.6107    2.4776  -18.6952 C   0  0  0  0  0  0  0  0  0  0  0  0
   -9.7689    3.8239  -19.3391 C   0  0  0  0  0  0  0  0  0  0  0  0
   -7.2757    4.4120  -17.9363 N   0  0  0  0  0  0  0  0  0  0  0  0
   -6.2210    4.9457  -17.3043 C   0  0  0  0  0  0  0  0  0  0  0  0
   -6.1201    5.2443  -15.9594 C   0  0  0  0  0  0  0  0  0  0  0  0
   -4.8283    5.8054  -15.8314 C   0  0  0  0  0  0  0  0  0  0  0  0
   -4.2038    6.3285  -14.5081 C   0  0  0  0  0  0  0  0  0  0  0  0
   -2.8264    5.8541  -14.1158 C   0  0  0  0  0  0  0  0  0  0  0  0
   -4.0228    5.4010  -13.3338 C   0  0  0  0  0  0  0  0  0  0  0  0
   -4.1707    5.8851  -16.9961 N   0  0  0  0  0  0  0  0  0  0  0  0
   -5.0533    5.3616  -17.8785 N   0  0  0  0  0  0  0  0  0  0  0  0
   -4.7540    5.3662  -19.2882 C   0  0  0  0  0  0  0  0  0  0  0  0
   -8.3746    3.4890  -10.6176 C   0  0  0  0  0  0  0  0  0  0  0  0
   -8.4817    3.6910   -9.2468 C   0  0  0  0  0  0  0  0  0  0  0  0
   -8.9158    2.7823   -8.1212 C   0  0  0  0  0  0  0  0  0  0  0  0
  1  2  1  0
  2  3  1  0
  3  4  1  0
  4  5  1  0
  5  6  1  0
  6  7  1  0
  7  8  1  0
  8  9  2  0
  9 10  1  0
 10 11  2  0
 11 12  1  0
 12 13  1  0
 13 14  2  0
 13 15  1  0
 15 16  2  0
 16 17  1  0
 17 18  1  0
 18 19  1  0
 19 20  1  0
 17 21  2  0
 21 22  1  0
 22 23  2  0
 23 24  1  0
 24 25  1  0
 25 26  1  0
 26 27  1  0
 24 28  2  0
 28 29  1  0
 29 30  1  0
 11 31  1  0
 31 32  2  0
 32 33  1  0
 33  6  1  0
 32  8  1  0
 23 15  1  0
 27 25  1  0
 20 18  1  0
 29 22  1  0
M  END
>  <name>  (749) 
P125657

>  <alias>  (749) 
None

>  <smina_score_min>  (749) 
-8.439

>  <exports>  (749) 
['/opt/xchem-fragalysis-2/maxwin/BulkDock/OUTPUTS/openbind_xx01zvns2b_c2_elabs_1LOUTNY.sdf', '/opt/xchem-fragalysis-2/maxwin/BulkDock/OUTPUTS/openbind_xx01zvns2b_c2_elabs_1LSYIIV.sdf']

>  <tags>  (749) 
syndirella_placed,openbind_xx01zvns2b_c2_elabs,openbind_xx01zvns2b_c2_elabs_scored_6.2plus,syndirella_product,openbind_xx01zvns2b_c2_elabs_scored,openbind_xx01zvns2b_c2_elabs_scored_top80percent,BulkDock Fragalysis export

>  <subsites>  (749) 
1 - Z4590/B/203/1

>  <smiles>  (749) 
COCCCN1Cc2ccc(NC(=O)c3cc(C4CC4)nc4c3c(C3CC3)nn4C)cc2C1

>  <HIPPO Pose ID>  (749) 
125657

>  <energy_score>  (749) 
-33.49197

>  <inchikey>  (749) 
ODZANHKJINLPRP-UHFFFAOYSA-N

>  <gnina_score_min>  (749) 
6.654

>  <gnina_score>  (749) 
6.54

>  <ref_mols>  (749) 
Z3559a

>  <HIPPO Compound ID>  (749) 
179782

>  <distance_score>  (749) 
0.696813

>  <rmsd(smina/fragmenstein)>  (749) 
1.155

>  <ref_pdb>  (749) 
Z3559a

>  <inspiration_score>  (749) 
None

$$$$
P125659
     RDKit          3D

 33 37  0  0  0  0  0  0  0  0999 V2000
   -4.0655    6.4533  -14.6371 C   0  0  0  0  0  0  0  0  0  0  0  0
   -4.7951    5.9770  -15.8397 C   0  0  0  0  0  0  0  0  0  0  0  0
   -4.2632    6.1871  -17.0576 N   0  0  0  0  0  0  0  0  0  0  0  0
   -5.1377    5.5840  -17.9039 N   0  0  0  0  0  0  0  0  0  0  0  0
   -5.0351    5.7739  -19.3430 C   0  0  0  0  0  0  0  0  0  0  0  0
   -3.7031    5.3661  -19.9611 C   0  0  0  0  0  0  0  0  0  0  0  0
   -3.6463    4.6200  -20.8600 O   0  0  0  0  0  0  0  0  0  0  0  0
   -2.5837    6.1796  -19.2571 N   0  0  0  0  0  0  0  0  0  0  0  0
   -1.1532    6.1697  -19.4527 C   0  0  0  0  0  0  0  0  0  0  0  0
   -0.4970    5.3568  -18.3475 C   0  0  0  0  0  0  0  0  0  0  0  0
   -0.6120    7.5921  -19.4882 C   0  0  0  0  0  0  0  0  0  0  0  0
   -6.2318    5.0769  -17.2591 C   0  0  0  0  0  0  0  0  0  0  0  0
   -7.2912    4.5149  -17.8513 N   0  0  0  0  0  0  0  0  0  0  0  0
   -8.3218    4.2043  -17.0385 C   0  0  0  0  0  0  0  0  0  0  0  0
   -9.5978    3.7252  -17.6881 C   0  0  0  0  0  0  0  0  0  0  0  0
   -9.8350    3.9283  -19.1644 C   0  0  0  0  0  0  0  0  0  0  0  0
   -9.5572    2.5532  -18.6362 C   0  0  0  0  0  0  0  0  0  0  0  0
   -8.2679    4.4025  -15.6566 C   0  0  0  0  0  0  0  0  0  0  0  0
   -7.1315    4.9781  -15.0679 C   0  0  0  0  0  0  0  0  0  0  0  0
   -7.1615    5.4065  -13.6475 C   0  0  0  0  0  0  0  0  0  0  0  0
   -6.8056    6.4925  -13.4045 O   0  0  0  0  0  0  0  0  0  0  0  0
   -7.7572    4.3154  -12.7240 N   0  0  0  0  0  0  0  0  0  0  0  0
   -7.9439    4.3015  -11.3398 C   0  0  0  0  0  0  0  0  0  0  0  0
   -7.7048    5.4532  -10.5716 C   0  0  0  0  0  0  0  0  0  0  0  0
   -7.9090    5.4521   -9.1878 C   0  0  0  0  0  0  0  0  0  0  0  0
   -8.3511    4.2862   -8.5917 C   0  0  0  0  0  0  0  0  0  0  0  0
   -8.5905    3.1416   -9.3462 C   0  0  0  0  0  0  0  0  0  0  0  0
   -8.3956    3.1302  -10.7217 C   0  0  0  0  0  0  0  0  0  0  0  0
   -9.0901    2.0521   -8.4479 C   0  0  0  0  0  0  0  0  0  0  0  0
   -8.9641    2.5877   -7.0744 N   0  0  0  0  0  0  0  0  0  0  0  0
  -10.0769    2.2463   -6.2125 C   0  0  0  0  0  0  0  0  0  0  0  0
   -8.6789    4.0246   -7.1573 C   0  0  0  0  0  0  0  0  0  0  0  0
   -6.0658    5.3404  -15.9110 C   0  0  0  0  0  0  0  0  0  0  0  0
  1  2  1  0
  2  3  2  0
  3  4  1  0
  4  5  1  0
  5  6  1  0
  6  7  2  0
  6  8  1  0
  8  9  1  0
  9 10  1  0
  9 11  1  0
  4 12  1  0
 12 13  2  0
 13 14  1  0
 14 15  1  0
 15 16  1  0
 16 17  1  0
 14 18  2  0
 18 19  1  0
 19 20  1  0
 20 21  2  0
 20 22  1  0
 22 23  1  0
 23 24  2  0
 24 25  1  0
 25 26  2  0
 26 27  1  0
 27 28  2  0
 27 29  1  0
 29 30  1  0
 30 31  1  0
 30 32  1  0
 19 33  2  0
 33  2  1  0
 33 12  1  0
 17 15  1  0
 28 23  1  0
 32 26  1  0
M  END
>  <name>  (750) 
P125659

>  <alias>  (750) 
None

>  <smina_score_min>  (750) 
-8.876

>  <exports>  (750) 
['/opt/xchem-fragalysis-2/maxwin/BulkDock/OUTPUTS/openbind_xx01zvns2b_c2_elabs_1LOUTNY.sdf', '/opt/xchem-fragalysis-2/maxwin/BulkDock/OUTPUTS/openbind_xx01zvns2b_c2_elabs_1LSYIIV.sdf']

>  <tags>  (750) 
syndirella_placed,openbind_xx01zvns2b_c2_elabs,openbind_xx01zvns2b_c2_elabs_scored_6.2plus,syndirella_product,openbind_xx01zvns2b_c2_elabs_scored,openbind_xx01zvns2b_c2_elabs_scored_top80percent,BulkDock Fragalysis export

>  <subsites>  (750) 
1 - Z4590/B/203/1

>  <smiles>  (750) 
Cc1nn(CC(=O)NC(C)C)c2nc(C3CC3)cc(C(=O)Nc3ccc4c(c3)CN(C)C4)c12

>  <HIPPO Pose ID>  (750) 
125659

>  <energy_score>  (750) 
-42.124254

>  <inchikey>  (750) 
NADXZUARHBVFFV-UHFFFAOYSA-N

>  <gnina_score_min>  (750) 
6.481

>  <gnina_score>  (750) 
6.543

>  <ref_mols>  (750) 
Z3559a

>  <HIPPO Compound ID>  (750) 
179506

>  <distance_score>  (750) 
0.380232

>  <rmsd(smina/fragmenstein)>  (750) 
1.145

>  <ref_pdb>  (750) 
Z3559a

>  <inspiration_score>  (750) 
None

$$$$
P125660
     RDKit          3D

 33 37  0  0  0  0  0  0  0  0999 V2000
   -4.2650    6.7616  -14.3433 C   0  0  0  0  0  0  0  0  0  0  0  0
   -4.9139    6.2665  -15.5835 C   0  0  0  0  0  0  0  0  0  0  0  0
   -4.3845    6.5942  -16.7741 N   0  0  0  0  0  0  0  0  0  0  0  0
   -5.1932    5.9855  -17.6702 N   0  0  0  0  0  0  0  0  0  0  0  0
   -5.2393    6.4303  -19.0506 C   0  0  0  0  0  0  0  0  0  0  0  0
   -4.2941    5.6801  -19.9661 C   0  0  0  0  0  0  0  0  0  0  0  0
   -3.2273    5.3372  -19.6322 O   0  0  0  0  0  0  0  0  0  0  0  0
   -4.9941    5.5925  -21.3585 N   0  0  0  0  0  0  0  0  0  0  0  0
   -4.4867    5.1536  -22.6348 C   0  0  0  0  0  0  0  0  0  0  0  0
   -3.5111    6.1824  -23.1957 C   0  0  0  0  0  0  0  0  0  0  0  0
   -3.8254    3.7910  -22.5231 C   0  0  0  0  0  0  0  0  0  0  0  0
   -6.1961    5.2692  -17.0814 C   0  0  0  0  0  0  0  0  0  0  0  0
   -7.1386    4.5799  -17.7316 N   0  0  0  0  0  0  0  0  0  0  0  0
   -8.1236    4.0791  -16.9612 C   0  0  0  0  0  0  0  0  0  0  0  0
   -9.1406    3.2057  -17.6421 C   0  0  0  0  0  0  0  0  0  0  0  0
   -9.1402    3.0776  -19.1441 C   0  0  0  0  0  0  0  0  0  0  0  0
  -10.2701    3.7826  -18.4595 C   0  0  0  0  0  0  0  0  0  0  0  0
   -8.1922    4.3129  -15.5837 C   0  0  0  0  0  0  0  0  0  0  0  0
   -7.1739    5.0320  -14.9394 C   0  0  0  0  0  0  0  0  0  0  0  0
   -7.2912    5.4357  -13.5171 C   0  0  0  0  0  0  0  0  0  0  0  0
   -7.0362    6.5423  -13.2466 O   0  0  0  0  0  0  0  0  0  0  0  0
   -7.7030    4.2523  -12.6116 N   0  0  0  0  0  0  0  0  0  0  0  0
   -7.9699    4.2088  -11.2431 C   0  0  0  0  0  0  0  0  0  0  0  0
   -7.8002    5.3550  -10.4413 C   0  0  0  0  0  0  0  0  0  0  0  0
   -7.9997    5.3023   -9.0586 C   0  0  0  0  0  0  0  0  0  0  0  0
   -8.3840    4.0922   -8.5194 C   0  0  0  0  0  0  0  0  0  0  0  0
   -8.5831    2.9548   -9.2978 C   0  0  0  0  0  0  0  0  0  0  0  0
   -8.3736    2.9963  -10.6684 C   0  0  0  0  0  0  0  0  0  0  0  0
   -8.9751    1.8126   -8.4209 C   0  0  0  0  0  0  0  0  0  0  0  0
   -9.0705    2.4281   -7.1135 N   0  0  0  0  0  0  0  0  0  0  0  0
   -8.6310    3.7342   -7.1173 C   0  0  0  0  0  0  0  0  0  0  0  0
   -8.4507    4.4602   -6.1581 O   0  0  0  0  0  0  0  0  0  0  0  0
   -6.1116    5.5113  -15.7236 C   0  0  0  0  0  0  0  0  0  0  0  0
  1  2  1  0
  2  3  2  0
  3  4  1  0
  4  5  1  0
  5  6  1  0
  6  7  2  0
  6  8  1  0
  8  9  1  0
  9 10  1  0
  9 11  1  0
  4 12  1  0
 12 13  2  0
 13 14  1  0
 14 15  1  0
 15 16  1  0
 16 17  1  0
 14 18  2  0
 18 19  1  0
 19 20  1  0
 20 21  2  0
 20 22  1  0
 22 23  1  0
 23 24  2  0
 24 25  1  0
 25 26  2  0
 26 27  1  0
 27 28  2  0
 27 29  1  0
 29 30  1  0
 30 31  1  0
 31 32  2  0
 19 33  2  0
 33  2  1  0
 33 12  1  0
 17 15  1  0
 28 23  1  0
 31 26  1  0
M  END
>  <name>  (751) 
P125660

>  <alias>  (751) 
None

>  <smina_score_min>  (751) 
-9.342

>  <exports>  (751) 
['/opt/xchem-fragalysis-2/maxwin/BulkDock/OUTPUTS/openbind_xx01zvns2b_c2_elabs_1LOUTNY.sdf', '/opt/xchem-fragalysis-2/maxwin/BulkDock/OUTPUTS/openbind_xx01zvns2b_c2_elabs_1LSYIIV.sdf']

>  <tags>  (751) 
syndirella_placed,openbind_xx01zvns2b_c2_elabs,openbind_xx01zvns2b_c2_elabs_scored_6.2plus,syndirella_product,openbind_xx01zvns2b_c2_elabs_scored,openbind_xx01zvns2b_c2_elabs_scored_top80percent,BulkDock Fragalysis export

>  <subsites>  (751) 
1 - Z4590/B/203/1

>  <smiles>  (751) 
Cc1nn(CC(=O)NC(C)C)c2nc(C3CC3)cc(C(=O)Nc3ccc4c(c3)CNC4=O)c12

>  <HIPPO Pose ID>  (751) 
125660

>  <energy_score>  (751) 
-6.11737

>  <inchikey>  (751) 
VYRAOLNOGRJZDE-UHFFFAOYSA-N

>  <gnina_score_min>  (751) 
6.455

>  <gnina_score>  (751) 
6.455

>  <ref_mols>  (751) 
Z3559a

>  <HIPPO Compound ID>  (751) 
179507

>  <distance_score>  (751) 
0.528162

>  <rmsd(smina/fragmenstein)>  (751) 
0.899

>  <ref_pdb>  (751) 
Z3559a

>  <inspiration_score>  (751) 
None

$$$$
P125661
     RDKit          3D

 33 38  0  0  0  0  0  0  0  0999 V2000
   -9.2349    4.8750   -2.4756 C   0  0  0  0  0  0  0  0  0  0  0  0
   -9.3081    4.7923   -3.9952 C   0  0  0  0  0  0  0  0  0  0  0  0
   -9.0710    3.3694   -4.5048 C   0  0  0  0  0  0  0  0  0  0  0  0
   -9.7422    2.9787   -5.8338 C   0  0  0  0  0  0  0  0  0  0  0  0
   -9.0011    3.3495   -7.0246 N   0  0  0  0  0  0  0  0  0  0  0  0
   -9.0262    2.5211   -8.2443 C   0  0  0  0  0  0  0  0  0  0  0  0
   -8.5026    3.4594   -9.2921 C   0  0  0  0  0  0  0  0  0  0  0  0
   -8.2977    3.3107  -10.6583 C   0  0  0  0  0  0  0  0  0  0  0  0
   -7.8827    4.4412  -11.3890 C   0  0  0  0  0  0  0  0  0  0  0  0
   -7.7131    4.3861  -12.7701 N   0  0  0  0  0  0  0  0  0  0  0  0
   -7.2341    5.4682  -13.7680 C   0  0  0  0  0  0  0  0  0  0  0  0
   -6.9809    6.5962  -13.5981 O   0  0  0  0  0  0  0  0  0  0  0  0
   -7.1639    4.9700  -15.1460 C   0  0  0  0  0  0  0  0  0  0  0  0
   -8.2985    4.4135  -15.7431 C   0  0  0  0  0  0  0  0  0  0  0  0
   -8.3128    4.1838  -17.1189 C   0  0  0  0  0  0  0  0  0  0  0  0
   -9.5897    3.7268  -17.7814 C   0  0  0  0  0  0  0  0  0  0  0  0
   -9.7801    3.8768  -19.2685 C   0  0  0  0  0  0  0  0  0  0  0  0
   -9.5728    2.5148  -18.6754 C   0  0  0  0  0  0  0  0  0  0  0  0
   -7.2441    4.4382  -17.9097 N   0  0  0  0  0  0  0  0  0  0  0  0
   -6.1808    4.9721  -17.2915 C   0  0  0  0  0  0  0  0  0  0  0  0
   -6.0517    5.2581  -15.9452 C   0  0  0  0  0  0  0  0  0  0  0  0
   -4.7567    5.8178  -15.8398 C   0  0  0  0  0  0  0  0  0  0  0  0
   -4.1006    6.3337  -14.5288 C   0  0  0  0  0  0  0  0  0  0  0  0
   -3.8779    5.4003  -13.3669 C   0  0  0  0  0  0  0  0  0  0  0  0
   -2.7084    5.8683  -14.1800 C   0  0  0  0  0  0  0  0  0  0  0  0
   -4.1238    5.9045  -17.0178 N   0  0  0  0  0  0  0  0  0  0  0  0
   -5.0266    5.3961  -17.8855 N   0  0  0  0  0  0  0  0  0  0  0  0
   -4.7563    5.4153  -19.3005 C   0  0  0  0  0  0  0  0  0  0  0  0
   -7.6631    5.6766  -10.7499 C   0  0  0  0  0  0  0  0  0  0  0  0
   -7.8600    5.8188   -9.3892 C   0  0  0  0  0  0  0  0  0  0  0  0
   -8.2776    4.7008   -8.7062 C   0  0  0  0  0  0  0  0  0  0  0  0
   -8.6639    4.6537   -7.3105 C   0  0  0  0  0  0  0  0  0  0  0  0
   -8.7215    5.6570   -6.6263 O   0  0  0  0  0  0  0  0  0  0  0  0
  1  2  1  0
  2  3  1  0
  3  4  1  0
  4  5  1  0
  5  6  1  0
  6  7  1  0
  7  8  2  0
  8  9  1  0
  9 10  1  0
 10 11  1  0
 11 12  2  0
 11 13  1  0
 13 14  2  0
 14 15  1  0
 15 16  1  0
 16 17  1  0
 17 18  1  0
 15 19  2  0
 19 20  1  0
 20 21  2  0
 21 22  1  0
 22 23  1  0
 23 24  1  0
 24 25  1  0
 22 26  2  0
 26 27  1  0
 27 28  1  0
  9 29  2  0
 29 30  1  0
 30 31  2  0
 31 32  1  0
 32 33  2  0
 32  5  1  0
 31  7  1  0
 21 13  1  0
 25 23  1  0
 18 16  1  0
 27 20  1  0
M  END
>  <name>  (752) 
P125661

>  <alias>  (752) 
None

>  <smina_score_min>  (752) 
-8.208

>  <exports>  (752) 
['/opt/xchem-fragalysis-2/maxwin/BulkDock/OUTPUTS/openbind_xx01zvns2b_c2_elabs_1LOUTNY.sdf', '/opt/xchem-fragalysis-2/maxwin/BulkDock/OUTPUTS/openbind_xx01zvns2b_c2_elabs_1LSYIIV.sdf']

>  <tags>  (752) 
syndirella_placed,openbind_xx01zvns2b_c2_elabs,openbind_xx01zvns2b_c2_elabs_scored_6.2plus,syndirella_product,openbind_xx01zvns2b_c2_elabs_scored,openbind_xx01zvns2b_c2_elabs_scored_top80percent,BulkDock Fragalysis export

>  <subsites>  (752) 
1 - Z4590/B/203/1

>  <smiles>  (752) 
CCCCN1Cc2cc(NC(=O)c3cc(C4CC4)nc4c3c(C3CC3)nn4C)ccc2C1=O

>  <HIPPO Pose ID>  (752) 
125661

>  <energy_score>  (752) 
-39.854684

>  <inchikey>  (752) 
UTPBSZJZCJQQFL-UHFFFAOYSA-N

>  <gnina_score_min>  (752) 
6.561

>  <gnina_score>  (752) 
6.63

>  <ref_mols>  (752) 
Z3559a

>  <HIPPO Compound ID>  (752) 
179790

>  <distance_score>  (752) 
0.577644

>  <rmsd(smina/fragmenstein)>  (752) 
0.593

>  <ref_pdb>  (752) 
Z3559a

>  <inspiration_score>  (752) 
None

$$$$
P125665
     RDKit          3D

 33 38  0  0  0  0  0  0  0  0999 V2000
   -7.9085    4.0125   -3.4576 C   0  0  0  0  0  0  0  0  0  0  0  0
   -8.8611    4.7478   -4.3815 C   0  0  0  0  0  0  0  0  0  0  0  0
   -9.5276    5.8750   -3.5997 C   0  0  0  0  0  0  0  0  0  0  0  0
   -9.9054    3.7888   -5.0073 C   0  0  0  0  0  0  0  0  0  0  0  0
   -9.3863    2.7756   -6.0637 C   0  0  0  0  0  0  0  0  0  0  0  0
   -9.3293    3.3701   -7.3862 N   0  0  0  0  0  0  0  0  0  0  0  0
   -8.3984    4.4842   -7.5058 C   0  0  0  0  0  0  0  0  0  0  0  0
   -8.1655    4.5894   -8.9635 C   0  0  0  0  0  0  0  0  0  0  0  0
   -7.7025    5.6857   -9.6496 C   0  0  0  0  0  0  0  0  0  0  0  0
   -7.6198    5.5768  -11.0256 C   0  0  0  0  0  0  0  0  0  0  0  0
   -7.9640    4.3832  -11.6904 C   0  0  0  0  0  0  0  0  0  0  0  0
   -7.8181    4.3576  -13.0762 N   0  0  0  0  0  0  0  0  0  0  0  0
   -7.4735    5.4896  -14.0700 C   0  0  0  0  0  0  0  0  0  0  0  0
   -7.3336    6.6359  -13.8933 O   0  0  0  0  0  0  0  0  0  0  0  0
   -7.2001    5.0050  -15.4275 C   0  0  0  0  0  0  0  0  0  0  0  0
   -8.2072    4.4638  -16.2350 C   0  0  0  0  0  0  0  0  0  0  0  0
   -7.9617    4.2821  -17.6038 C   0  0  0  0  0  0  0  0  0  0  0  0
   -8.9798    3.7998  -18.5997 C   0  0  0  0  0  0  0  0  0  0  0  0
  -10.4430    3.6533  -18.3406 C   0  0  0  0  0  0  0  0  0  0  0  0
   -9.5612    2.4314  -18.4130 C   0  0  0  0  0  0  0  0  0  0  0  0
   -6.7758    4.5775  -18.1721 N   0  0  0  0  0  0  0  0  0  0  0  0
   -5.8477    5.0833  -17.3584 C   0  0  0  0  0  0  0  0  0  0  0  0
   -5.9605    5.3141  -16.0046 C   0  0  0  0  0  0  0  0  0  0  0  0
   -4.7037    5.8619  -15.6542 C   0  0  0  0  0  0  0  0  0  0  0  0
   -4.2870    6.3156  -14.2273 C   0  0  0  0  0  0  0  0  0  0  0  0
   -2.9507    5.8731  -13.6841 C   0  0  0  0  0  0  0  0  0  0  0  0
   -4.2146    5.3130  -13.1043 C   0  0  0  0  0  0  0  0  0  0  0  0
   -3.8736    5.9875  -16.6993 N   0  0  0  0  0  0  0  0  0  0  0  0
   -4.6106    5.5163  -17.7285 N   0  0  0  0  0  0  0  0  0  0  0  0
   -4.0942    5.5581  -19.0722 C   0  0  0  0  0  0  0  0  0  0  0  0
   -8.4120    3.2662  -10.9684 C   0  0  0  0  0  0  0  0  0  0  0  0
   -8.5315    3.3955   -9.5906 C   0  0  0  0  0  0  0  0  0  0  0  0
   -9.0580    2.4594   -8.5284 C   0  0  0  0  0  0  0  0  0  0  0  0
  1  2  1  0
  2  3  1  0
  2  4  1  0
  4  5  1  0
  5  6  1  0
  6  7  1  0
  7  8  1  0
  8  9  2  0
  9 10  1  0
 10 11  2  0
 11 12  1  0
 12 13  1  0
 13 14  2  0
 13 15  1  0
 15 16  2  0
 16 17  1  0
 17 18  1  0
 18 19  1  0
 19 20  1  0
 17 21  2  0
 21 22  1  0
 22 23  2  0
 23 24  1  0
 24 25  1  0
 25 26  1  0
 26 27  1  0
 24 28  2  0
 28 29  1  0
 29 30  1  0
 11 31  1  0
 31 32  2  0
 32 33  1  0
 33  6  1  0
 32  8  1  0
 23 15  1  0
 27 25  1  0
 20 18  1  0
 29 22  1  0
M  END
>  <name>  (753) 
P125665

>  <alias>  (753) 
None

>  <smina_score_min>  (753) 
-9.25

>  <exports>  (753) 
['/opt/xchem-fragalysis-2/maxwin/BulkDock/OUTPUTS/openbind_xx01zvns2b_c2_elabs_1LOUTNY.sdf', '/opt/xchem-fragalysis-2/maxwin/BulkDock/OUTPUTS/openbind_xx01zvns2b_c2_elabs_1LSYIIV.sdf']

>  <tags>  (753) 
syndirella_placed,openbind_xx01zvns2b_c2_elabs,openbind_xx01zvns2b_c2_elabs_scored_6.2plus,syndirella_product,openbind_xx01zvns2b_c2_elabs_scored,openbind_xx01zvns2b_c2_elabs_scored_top80percent,BulkDock Fragalysis export

>  <subsites>  (753) 
1 - Z4590/B/203/1

>  <smiles>  (753) 
CC(C)CCN1Cc2ccc(NC(=O)c3cc(C4CC4)nc4c3c(C3CC3)nn4C)cc2C1

>  <HIPPO Pose ID>  (753) 
125665

>  <energy_score>  (753) 
-30.287964

>  <inchikey>  (753) 
LDRZKBUBLVEGNJ-UHFFFAOYSA-N

>  <gnina_score_min>  (753) 
6.849

>  <gnina_score>  (753) 
6.734

>  <ref_mols>  (753) 
Z3559a

>  <HIPPO Compound ID>  (753) 
179788

>  <distance_score>  (753) 
0.787299

>  <rmsd(smina/fragmenstein)>  (753) 
0.752

>  <ref_pdb>  (753) 
Z3559a

>  <inspiration_score>  (753) 
None

$$$$
P125666
     RDKit          3D

 33 38  0  0  0  0  0  0  0  0999 V2000
  -10.0898    3.9013   -4.4974 C   0  0  0  0  0  0  0  0  0  0  0  0
  -10.5946    2.9935   -5.4632 O   0  0  0  0  0  0  0  0  0  0  0  0
   -9.5648    2.2472   -6.1172 C   0  0  0  0  0  0  0  0  0  0  0  0
   -9.1699    2.9010   -7.3219 N   0  0  0  0  0  0  0  0  0  0  0  0
   -8.3444    3.9837   -7.3348 C   0  0  0  0  0  0  0  0  0  0  0  0
   -7.8260    4.6010   -6.4202 O   0  0  0  0  0  0  0  0  0  0  0  0
   -8.1091    4.2890   -8.7342 C   0  0  0  0  0  0  0  0  0  0  0  0
   -7.4745    5.3709   -9.2963 C   0  0  0  0  0  0  0  0  0  0  0  0
   -7.3951    5.3944  -10.6865 C   0  0  0  0  0  0  0  0  0  0  0  0
   -7.9127    4.3373  -11.4673 C   0  0  0  0  0  0  0  0  0  0  0  0
   -7.7802    4.3767  -12.8499 N   0  0  0  0  0  0  0  0  0  0  0  0
   -7.1278    5.4366  -13.7657 C   0  0  0  0  0  0  0  0  0  0  0  0
   -6.6683    6.4779  -13.5090 O   0  0  0  0  0  0  0  0  0  0  0  0
   -7.1246    5.0143  -15.1794 C   0  0  0  0  0  0  0  0  0  0  0  0
   -8.2808    4.4819  -15.7651 C   0  0  0  0  0  0  0  0  0  0  0  0
   -8.3219    4.2405  -17.1382 C   0  0  0  0  0  0  0  0  0  0  0  0
   -9.6038    3.7609  -17.7749 C   0  0  0  0  0  0  0  0  0  0  0  0
   -9.8275    3.9090  -19.2573 C   0  0  0  0  0  0  0  0  0  0  0  0
   -9.5782    2.5506  -18.6726 C   0  0  0  0  0  0  0  0  0  0  0  0
   -7.2699    4.4933  -17.9466 N   0  0  0  0  0  0  0  0  0  0  0  0
   -6.1863    5.0053  -17.3479 C   0  0  0  0  0  0  0  0  0  0  0  0
   -6.0194    5.2794  -16.0023 C   0  0  0  0  0  0  0  0  0  0  0  0
   -4.6918    5.7739  -15.9251 C   0  0  0  0  0  0  0  0  0  0  0  0
   -3.9556    6.1697  -14.6105 C   0  0  0  0  0  0  0  0  0  0  0  0
   -3.8179    7.6329  -14.2742 C   0  0  0  0  0  0  0  0  0  0  0  0
   -2.6053    6.8402  -14.6631 C   0  0  0  0  0  0  0  0  0  0  0  0
   -4.0901    5.8506  -17.1204 N   0  0  0  0  0  0  0  0  0  0  0  0
   -5.0354    5.3955  -17.9683 N   0  0  0  0  0  0  0  0  0  0  0  0
   -4.7984    5.4078  -19.3890 C   0  0  0  0  0  0  0  0  0  0  0  0
   -8.5552    3.2503  -10.8682 C   0  0  0  0  0  0  0  0  0  0  0  0
   -8.6585    3.2718   -9.4914 C   0  0  0  0  0  0  0  0  0  0  0  0
   -9.3302    2.3626   -8.5667 C   0  0  0  0  0  0  0  0  0  0  0  0
   -9.8985    1.3482   -8.9146 O   0  0  0  0  0  0  0  0  0  0  0  0
  1  2  1  0
  2  3  1  0
  3  4  1  0
  4  5  1  0
  5  6  2  0
  5  7  1  0
  7  8  2  0
  8  9  1  0
  9 10  2  0
 10 11  1  0
 11 12  1  0
 12 13  2  0
 12 14  1  0
 14 15  2  0
 15 16  1  0
 16 17  1  0
 17 18  1  0
 18 19  1  0
 16 20  2  0
 20 21  1  0
 21 22  2  0
 22 23  1  0
 23 24  1  0
 24 25  1  0
 25 26  1  0
 23 27  2  0
 27 28  1  0
 28 29  1  0
 10 30  1  0
 30 31  2  0
 31 32  1  0
 32 33  2  0
 32  4  1  0
 31  7  1  0
 22 14  1  0
 26 24  1  0
 19 17  1  0
 28 21  1  0
M  END
>  <name>  (754) 
P125666

>  <alias>  (754) 
None

>  <smina_score_min>  (754) 
-8.41

>  <exports>  (754) 
['/opt/xchem-fragalysis-2/maxwin/BulkDock/OUTPUTS/openbind_xx01zvns2b_c2_elabs_1LOUTNY.sdf', '/opt/xchem-fragalysis-2/maxwin/BulkDock/OUTPUTS/openbind_xx01zvns2b_c2_elabs_1LSYIIV.sdf']

>  <tags>  (754) 
syndirella_placed,openbind_xx01zvns2b_c2_elabs,openbind_xx01zvns2b_c2_elabs_scored_6.2plus,syndirella_product,openbind_xx01zvns2b_c2_elabs_scored,openbind_xx01zvns2b_c2_elabs_scored_top80percent,BulkDock Fragalysis export

>  <subsites>  (754) 
1 - Z4590/B/203/1

>  <smiles>  (754) 
COCN1C(=O)c2ccc(NC(=O)c3cc(C4CC4)nc4c3c(C3CC3)nn4C)cc2C1=O

>  <HIPPO Pose ID>  (754) 
125666

>  <energy_score>  (754) 
-48.278116

>  <inchikey>  (754) 
AFNGGZMCRVSUOA-UHFFFAOYSA-N

>  <gnina_score_min>  (754) 
6.331

>  <gnina_score>  (754) 
6.369

>  <ref_mols>  (754) 
Z3559a

>  <HIPPO Compound ID>  (754) 
179786

>  <distance_score>  (754) 
0.481577

>  <rmsd(smina/fragmenstein)>  (754) 
0.34

>  <ref_pdb>  (754) 
Z3559a

>  <inspiration_score>  (754) 
None

$$$$
P125675
     RDKit          3D

 33 38  0  0  0  0  0  0  0  0999 V2000
   -4.0068    6.1998  -14.4769 C   0  0  0  0  0  0  0  0  0  0  0  0
   -4.7530    5.8577  -15.7143 C   0  0  0  0  0  0  0  0  0  0  0  0
   -4.1935    6.0954  -16.9143 N   0  0  0  0  0  0  0  0  0  0  0  0
   -5.1495    5.7263  -17.7927 N   0  0  0  0  0  0  0  0  0  0  0  0
   -5.1089    6.1748  -19.1701 C   0  0  2  0  0  0  0  0  0  0  0  0
   -4.6107    5.1245  -20.1623 C   0  0  0  0  0  0  0  0  0  0  0  0
   -4.5329    5.8206  -21.5164 C   0  0  0  0  0  0  0  0  0  0  0  0
   -4.0882    7.5130  -21.1571 S   0  0  0  0  0  0  0  0  0  0  0  0
   -2.6987    7.7211  -21.5050 O   0  0  0  0  0  0  0  0  0  0  0  0
   -5.1391    8.3925  -21.6300 O   0  0  0  0  0  0  0  0  0  0  0  0
   -4.2255    7.4008  -19.3914 C   0  0  0  0  0  0  0  0  0  0  0  0
   -6.2313    5.1425  -17.1954 C   0  0  0  0  0  0  0  0  0  0  0  0
   -7.2951    4.6345  -17.8285 N   0  0  0  0  0  0  0  0  0  0  0  0
   -8.3184    4.2525  -17.0301 C   0  0  0  0  0  0  0  0  0  0  0  0
   -9.5830    3.7638  -17.6977 C   0  0  0  0  0  0  0  0  0  0  0  0
   -9.5198    2.5874  -18.6392 C   0  0  0  0  0  0  0  0  0  0  0  0
   -9.8053    3.9572  -19.1766 C   0  0  0  0  0  0  0  0  0  0  0  0
   -8.2751    4.3927  -15.6389 C   0  0  0  0  0  0  0  0  0  0  0  0
   -7.1404    4.9348  -15.0193 C   0  0  0  0  0  0  0  0  0  0  0  0
   -7.1781    5.3535  -13.5993 C   0  0  0  0  0  0  0  0  0  0  0  0
   -6.8583    6.4526  -13.3649 O   0  0  0  0  0  0  0  0  0  0  0  0
   -7.7451    4.2545  -12.6700 N   0  0  0  0  0  0  0  0  0  0  0  0
   -7.9409    4.2480  -11.2887 C   0  0  0  0  0  0  0  0  0  0  0  0
   -7.6666    5.3935  -10.5216 C   0  0  0  0  0  0  0  0  0  0  0  0
   -7.8765    5.4035   -9.1394 C   0  0  0  0  0  0  0  0  0  0  0  0
   -8.3518    4.2518   -8.5428 C   0  0  0  0  0  0  0  0  0  0  0  0
   -8.6194    3.1121   -9.2957 C   0  0  0  0  0  0  0  0  0  0  0  0
   -8.4273    3.0923  -10.6709 C   0  0  0  0  0  0  0  0  0  0  0  0
   -9.1382    2.0348   -8.3949 C   0  0  0  0  0  0  0  0  0  0  0  0
   -8.9988    2.5694   -7.0224 N   0  0  0  0  0  0  0  0  0  0  0  0
  -10.1184    2.2520   -6.1596 C   0  0  0  0  0  0  0  0  0  0  0  0
   -8.6889    4.0013   -7.1090 C   0  0  0  0  0  0  0  0  0  0  0  0
   -6.0554    5.2977  -15.8334 C   0  0  0  0  0  0  0  0  0  0  0  0
  1  2  1  0
  2  3  2  0
  3  4  1  0
  5  4  1  1
  5  6  1  0
  6  7  1  0
  7  8  1  0
  8  9  2  0
  8 10  2  0
  8 11  1  0
  4 12  1  0
 12 13  2  0
 13 14  1  0
 14 15  1  0
 15 16  1  0
 16 17  1  0
 14 18  2  0
 18 19  1  0
 19 20  1  0
 20 21  2  0
 20 22  1  0
 22 23  1  0
 23 24  2  0
 24 25  1  0
 25 26  2  0
 26 27  1  0
 27 28  2  0
 27 29  1  0
 29 30  1  0
 30 31  1  0
 30 32  1  0
 19 33  2  0
 33  2  1  0
 11  5  1  0
 33 12  1  0
 17 15  1  0
 28 23  1  0
 32 26  1  0
M  END
>  <name>  (755) 
P125675

>  <alias>  (755) 
None

>  <smina_score_min>  (755) 
-9.51

>  <exports>  (755) 
['/opt/xchem-fragalysis-2/maxwin/BulkDock/OUTPUTS/openbind_xx01zvns2b_c2_elabs_1LOUTNY.sdf', '/opt/xchem-fragalysis-2/maxwin/BulkDock/OUTPUTS/openbind_xx01zvns2b_c2_elabs_1LSYIIV.sdf']

>  <tags>  (755) 
syndirella_placed,openbind_xx01zvns2b_c2_elabs,openbind_xx01zvns2b_c2_elabs_scored_6.2plus,syndirella_product,openbind_xx01zvns2b_c2_elabs_scored,openbind_xx01zvns2b_c2_elabs_scored_top80percent,BulkDock Fragalysis export

>  <subsites>  (755) 
1 - Z4590/B/203/1

>  <smiles>  (755) 
Cc1nn([C@@H]2CCS(=O)(=O)C2)c2nc(C3CC3)cc(C(=O)Nc3ccc4c(c3)CN(C)C4)c12

>  <HIPPO Pose ID>  (755) 
125675

>  <energy_score>  (755) 
-34.712547

>  <inchikey>  (755) 
TUSSQVYFPVCRGF-LJQANCHMSA-N

>  <gnina_score_min>  (755) 
6.54

>  <gnina_score>  (755) 
6.53

>  <ref_mols>  (755) 
Z3559a

>  <HIPPO Compound ID>  (755) 
179617

>  <distance_score>  (755) 
0.381016

>  <rmsd(smina/fragmenstein)>  (755) 
0.673

>  <ref_pdb>  (755) 
Z3559a

>  <inspiration_score>  (755) 
None

$$$$
P125678
     RDKit          3D

 33 38  0  0  0  0  0  0  0  0999 V2000
  -10.8297    2.1211   -5.7694 C   0  0  0  0  0  0  0  0  0  0  0  0
   -9.3986    2.6170   -5.9034 C   0  0  0  0  0  0  0  0  0  0  0  0
   -9.0845    3.5197   -4.6998 C   0  0  0  0  0  0  0  0  0  0  0  0
   -9.1602    3.2699   -7.1829 N   0  0  0  0  0  0  0  0  0  0  0  0
   -8.3424    4.4537   -7.2758 C   0  0  0  0  0  0  0  0  0  0  0  0
   -8.1112    4.5889   -8.7286 C   0  0  0  0  0  0  0  0  0  0  0  0
   -7.4832    5.6156   -9.3918 C   0  0  0  0  0  0  0  0  0  0  0  0
   -7.3604    5.5000  -10.7699 C   0  0  0  0  0  0  0  0  0  0  0  0
   -7.8554    4.3761  -11.4633 C   0  0  0  0  0  0  0  0  0  0  0  0
   -7.7063    4.3312  -12.8440 N   0  0  0  0  0  0  0  0  0  0  0  0
   -7.0045    5.3138  -13.8115 C   0  0  0  0  0  0  0  0  0  0  0  0
   -6.5091    6.3528  -13.6084 O   0  0  0  0  0  0  0  0  0  0  0  0
   -7.0702    4.8918  -15.2241 C   0  0  0  0  0  0  0  0  0  0  0  0
   -8.2312    4.3609  -15.7940 C   0  0  0  0  0  0  0  0  0  0  0  0
   -8.3221    4.2190  -17.1813 C   0  0  0  0  0  0  0  0  0  0  0  0
   -9.6142    3.7408  -17.7940 C   0  0  0  0  0  0  0  0  0  0  0  0
   -9.5977    2.5318  -18.6923 C   0  0  0  0  0  0  0  0  0  0  0  0
   -9.8709    3.8889  -19.2702 C   0  0  0  0  0  0  0  0  0  0  0  0
   -7.3247    4.5831  -18.0217 N   0  0  0  0  0  0  0  0  0  0  0  0
   -6.2364    5.0958  -17.4338 C   0  0  0  0  0  0  0  0  0  0  0  0
   -6.0209    5.2503  -16.0803 C   0  0  0  0  0  0  0  0  0  0  0  0
   -4.7340    5.8231  -15.9956 C   0  0  0  0  0  0  0  0  0  0  0  0
   -4.1843    6.0504  -17.1947 N   0  0  0  0  0  0  0  0  0  0  0  0
   -5.1662    5.6827  -18.0600 N   0  0  0  0  0  0  0  0  0  0  0  0
   -5.1547    6.1219  -19.4632 C   0  0  2  0  0  0  0  0  0  0  0  0
   -4.5262    5.0712  -20.3658 C   0  0  0  0  0  0  0  0  0  0  0  0
   -4.5884    7.5289  -19.6090 C   0  0  0  0  0  0  0  0  0  0  0  0
   -3.2439    7.8304  -20.2292 C   0  0  0  0  0  0  0  0  0  0  0  0
   -4.5051    8.2072  -20.9576 C   0  0  0  0  0  0  0  0  0  0  0  0
   -8.4958    3.3408  -10.7803 C   0  0  0  0  0  0  0  0  0  0  0  0
   -8.6117    3.4811   -9.4088 C   0  0  0  0  0  0  0  0  0  0  0  0
   -9.2538    2.6099   -8.4135 C   0  0  0  0  0  0  0  0  0  0  0  0
   -9.7681    1.5420   -8.6762 O   0  0  0  0  0  0  0  0  0  0  0  0
  1  2  1  0
  2  3  1  0
  2  4  1  0
  4  5  1  0
  5  6  1  0
  6  7  2  0
  7  8  1  0
  8  9  2  0
  9 10  1  0
 10 11  1  0
 11 12  2  0
 11 13  1  0
 13 14  2  0
 14 15  1  0
 15 16  1  0
 16 17  1  0
 17 18  1  0
 15 19  2  0
 19 20  1  0
 20 21  2  0
 21 22  1  0
 22 23  2  0
 23 24  1  0
 24 25  1  0
 25 26  1  6
 25 27  1  0
 27 28  1  0
 28 29  1  0
  9 30  1  0
 30 31  2  0
 31 32  1  0
 32 33  2  0
 32  4  1  0
 31  6  1  0
 21 13  1  0
 29 27  1  0
 18 16  1  0
 24 20  1  0
M  END
>  <name>  (756) 
P125678

>  <alias>  (756) 
None

>  <smina_score_min>  (756) 
-8.9

>  <exports>  (756) 
['/opt/xchem-fragalysis-2/maxwin/BulkDock/OUTPUTS/openbind_xx01zvns2b_c2_elabs_1LOUTNY.sdf', '/opt/xchem-fragalysis-2/maxwin/BulkDock/OUTPUTS/openbind_xx01zvns2b_c2_elabs_1LSYIIV.sdf']

>  <tags>  (756) 
syndirella_placed,openbind_xx01zvns2b_c2_elabs,openbind_xx01zvns2b_c2_elabs_scored_6.2plus,syndirella_product,openbind_xx01zvns2b_c2_elabs_scored,openbind_xx01zvns2b_c2_elabs_scored_top80percent,BulkDock Fragalysis export

>  <subsites>  (756) 
1 - Z4590/B/203/1

>  <smiles>  (756) 
CC(C)N1Cc2ccc(NC(=O)c3cc(C4CC4)nc4c3cnn4[C@H](C)C3CC3)cc2C1=O

>  <HIPPO Pose ID>  (756) 
125678

>  <energy_score>  (756) 
-50.152795

>  <inchikey>  (756) 
XTLTVBUJQGJJMF-OAHLLOKOSA-N

>  <gnina_score_min>  (756) 
6.288

>  <gnina_score>  (756) 
6.382

>  <ref_mols>  (756) 
Z3559a

>  <HIPPO Compound ID>  (756) 
179718

>  <distance_score>  (756) 
0.596973

>  <rmsd(smina/fragmenstein)>  (756) 
0.474

>  <ref_pdb>  (756) 
Z3559a

>  <inspiration_score>  (756) 
None

$$$$
P125681
     RDKit          3D

 33 38  0  0  0  0  0  0  0  0999 V2000
   -8.3075    4.8507   -4.0450 C   0  0  0  0  0  0  0  0  0  0  0  0
   -9.4204    3.8595   -3.7627 C   0  0  0  0  0  0  0  0  0  0  0  0
  -10.2310    3.4107   -4.9846 C   0  0  0  0  0  0  0  0  0  0  0  0
   -9.4750    2.5456   -6.0123 C   0  0  0  0  0  0  0  0  0  0  0  0
   -9.4389    3.2152   -7.2998 N   0  0  0  0  0  0  0  0  0  0  0  0
   -8.4990    4.3383   -7.3325 C   0  0  0  0  0  0  0  0  0  0  0  0
   -8.1707    4.4831   -8.7722 C   0  0  0  0  0  0  0  0  0  0  0  0
   -7.5892    5.5580   -9.4035 C   0  0  0  0  0  0  0  0  0  0  0  0
   -7.3696    5.4508  -10.7686 C   0  0  0  0  0  0  0  0  0  0  0  0
   -7.7335    4.2893  -11.4745 C   0  0  0  0  0  0  0  0  0  0  0  0
   -7.5039    4.2369  -12.8449 N   0  0  0  0  0  0  0  0  0  0  0  0
   -6.8888    5.2851  -13.8009 C   0  0  0  0  0  0  0  0  0  0  0  0
   -6.4082    6.3260  -13.5754 O   0  0  0  0  0  0  0  0  0  0  0  0
   -6.9935    4.8995  -15.2209 C   0  0  0  0  0  0  0  0  0  0  0  0
   -8.1673    4.3715  -15.7693 C   0  0  0  0  0  0  0  0  0  0  0  0
   -8.2879    4.2374  -17.1555 C   0  0  0  0  0  0  0  0  0  0  0  0
   -9.5869    3.7490  -17.7475 C   0  0  0  0  0  0  0  0  0  0  0  0
   -9.5714    2.5634  -18.6782 C   0  0  0  0  0  0  0  0  0  0  0  0
   -9.8883    3.9284  -19.2125 C   0  0  0  0  0  0  0  0  0  0  0  0
   -7.3091    4.6125  -18.0111 N   0  0  0  0  0  0  0  0  0  0  0  0
   -6.2069    5.1173  -17.4435 C   0  0  0  0  0  0  0  0  0  0  0  0
   -5.9634    5.2661  -16.0947 C   0  0  0  0  0  0  0  0  0  0  0  0
   -4.6734    5.8341  -16.0333 C   0  0  0  0  0  0  0  0  0  0  0  0
   -4.1426    6.0575  -17.2424 N   0  0  0  0  0  0  0  0  0  0  0  0
   -5.1431    5.6924  -18.0903 N   0  0  0  0  0  0  0  0  0  0  0  0
   -5.1525    6.1171  -19.4980 C   0  0  2  0  0  0  0  0  0  0  0  0
   -4.5623    5.0466  -20.4030 C   0  0  0  0  0  0  0  0  0  0  0  0
   -4.5627    7.5120  -19.6709 C   0  0  0  0  0  0  0  0  0  0  0  0
   -4.5239    8.1813  -21.0261 C   0  0  0  0  0  0  0  0  0  0  0  0
   -3.2401    7.7868  -20.3488 C   0  0  0  0  0  0  0  0  0  0  0  0
   -8.3222    3.2033  -10.8158 C   0  0  0  0  0  0  0  0  0  0  0  0
   -8.5296    3.3165   -9.4518 C   0  0  0  0  0  0  0  0  0  0  0  0
   -9.1147    2.3508   -8.4593 C   0  0  0  0  0  0  0  0  0  0  0  0
  1  2  1  0
  2  3  1  0
  3  4  1  0
  4  5  1  0
  5  6  1  0
  6  7  1  0
  7  8  2  0
  8  9  1  0
  9 10  2  0
 10 11  1  0
 11 12  1  0
 12 13  2  0
 12 14  1  0
 14 15  2  0
 15 16  1  0
 16 17  1  0
 17 18  1  0
 18 19  1  0
 16 20  2  0
 20 21  1  0
 21 22  2  0
 22 23  1  0
 23 24  2  0
 24 25  1  0
 25 26  1  0
 26 27  1  6
 26 28  1  0
 28 29  1  0
 29 30  1  0
 10 31  1  0
 31 32  2  0
 32 33  1  0
 33  5  1  0
 32  7  1  0
 22 14  1  0
 30 28  1  0
 19 17  1  0
 25 21  1  0
M  END
>  <name>  (757) 
P125681

>  <alias>  (757) 
None

>  <smina_score_min>  (757) 
-8.59

>  <exports>  (757) 
['/opt/xchem-fragalysis-2/maxwin/BulkDock/OUTPUTS/openbind_xx01zvns2b_c2_elabs_1LOUTNY.sdf', '/opt/xchem-fragalysis-2/maxwin/BulkDock/OUTPUTS/openbind_xx01zvns2b_c2_elabs_1LSYIIV.sdf']

>  <tags>  (757) 
syndirella_placed,openbind_xx01zvns2b_c2_elabs,openbind_xx01zvns2b_c2_elabs_scored_6.2plus,syndirella_product,openbind_xx01zvns2b_c2_elabs_scored,openbind_xx01zvns2b_c2_elabs_scored_top80percent,BulkDock Fragalysis export

>  <subsites>  (757) 
1 - Z4590/B/203/1

>  <smiles>  (757) 
CCCCN1Cc2ccc(NC(=O)c3cc(C4CC4)nc4c3cnn4[C@H](C)C3CC3)cc2C1

>  <HIPPO Pose ID>  (757) 
125681

>  <energy_score>  (757) 
-86.799568

>  <inchikey>  (757) 
ZGDOFLCFCBKDJL-QGZVFWFLSA-N

>  <gnina_score_min>  (757) 
6.522

>  <gnina_score>  (757) 
6.494

>  <ref_mols>  (757) 
Z3559a

>  <HIPPO Compound ID>  (757) 
179684

>  <distance_score>  (757) 
0.587416

>  <rmsd(smina/fragmenstein)>  (757) 
0.905

>  <ref_pdb>  (757) 
Z3559a

>  <inspiration_score>  (757) 
None

$$$$
P125683
     RDKit          3D

 33 38  0  0  0  0  0  0  0  0999 V2000
  -10.9406    3.1522   -5.5659 C   0  0  0  0  0  0  0  0  0  0  0  0
   -9.6262    2.4611   -5.8672 C   0  0  0  0  0  0  0  0  0  0  0  0
   -8.8847    2.9152   -7.0141 N   0  0  0  0  0  0  0  0  0  0  0  0
   -8.5809    4.3290   -7.1427 C   0  0  0  0  0  0  0  0  0  0  0  0
   -8.2898    4.5009   -8.5958 C   0  0  0  0  0  0  0  0  0  0  0  0
   -7.7861    5.6102   -9.2400 C   0  0  0  0  0  0  0  0  0  0  0  0
   -7.5986    5.5318  -10.6176 C   0  0  0  0  0  0  0  0  0  0  0  0
   -7.9183    4.3627  -11.3318 C   0  0  0  0  0  0  0  0  0  0  0  0
   -7.6828    4.3117  -12.7043 N   0  0  0  0  0  0  0  0  0  0  0  0
   -7.0509    5.3560  -13.6549 C   0  0  0  0  0  0  0  0  0  0  0  0
   -6.5590    6.3907  -13.4240 O   0  0  0  0  0  0  0  0  0  0  0  0
   -7.0900    4.9405  -15.0751 C   0  0  0  0  0  0  0  0  0  0  0  0
   -8.2285    4.3819  -15.6659 C   0  0  0  0  0  0  0  0  0  0  0  0
   -8.2854    4.2156  -17.0553 C   0  0  0  0  0  0  0  0  0  0  0  0
   -9.5655    3.7360  -17.6991 C   0  0  0  0  0  0  0  0  0  0  0  0
   -9.8172    3.9408  -19.1717 C   0  0  0  0  0  0  0  0  0  0  0  0
   -9.5281    2.5657  -18.6490 C   0  0  0  0  0  0  0  0  0  0  0  0
   -7.2606    4.5539  -17.8743 N   0  0  0  0  0  0  0  0  0  0  0  0
   -6.1909    5.0858  -17.2690 C   0  0  0  0  0  0  0  0  0  0  0  0
   -6.0296    5.3041  -15.9157 C   0  0  0  0  0  0  0  0  0  0  0  0
   -4.7714    5.9316  -15.8122 C   0  0  0  0  0  0  0  0  0  0  0  0
   -4.1964    6.1468  -17.0008 N   0  0  0  0  0  0  0  0  0  0  0  0
   -5.0817    5.6114  -17.8843 N   0  0  0  0  0  0  0  0  0  0  0  0
   -4.9899    5.9011  -19.3135 C   0  0  0  0  0  0  0  0  0  0  0  0
   -3.6996    5.4985  -19.9736 C   0  0  0  0  0  0  0  0  0  0  0  0
   -2.4504    5.9734  -19.5586 C   0  0  0  0  0  0  0  0  0  0  0  0
   -1.2976    5.6019  -20.2429 C   0  0  0  0  0  0  0  0  0  0  0  0
   -1.4293    4.7702  -21.3381 C   0  0  0  0  0  0  0  0  0  0  0  0
   -2.6133    4.2960  -21.7790 N   0  0  0  0  0  0  0  0  0  0  0  0
   -3.7188    4.6843  -21.1022 C   0  0  0  0  0  0  0  0  0  0  0  0
   -8.4538    3.2527  -10.6693 C   0  0  0  0  0  0  0  0  0  0  0  0
   -8.6300    3.3389   -9.2949 C   0  0  0  0  0  0  0  0  0  0  0  0
   -9.1885    2.3350   -8.3279 C   0  0  0  0  0  0  0  0  0  0  0  0
  1  2  1  0
  2  3  1  0
  3  4  1  0
  4  5  1  0
  5  6  2  0
  6  7  1  0
  7  8  2  0
  8  9  1  0
  9 10  1  0
 10 11  2  0
 10 12  1  0
 12 13  2  0
 13 14  1  0
 14 15  1  0
 15 16  1  0
 16 17  1  0
 14 18  2  0
 18 19  1  0
 19 20  2  0
 20 21  1  0
 21 22  2  0
 22 23  1  0
 23 24  1  0
 24 25  1  0
 25 26  2  0
 26 27  1  0
 27 28  2  0
 28 29  1  0
 29 30  2  0
  8 31  1  0
 31 32  2  0
 32 33  1  0
 33  3  1  0
 32  5  1  0
 20 12  1  0
 30 25  1  0
 17 15  1  0
 23 19  1  0
M  END
>  <name>  (758) 
P125683

>  <alias>  (758) 
None

>  <smina_score_min>  (758) 
-9.377

>  <exports>  (758) 
['/opt/xchem-fragalysis-2/maxwin/BulkDock/OUTPUTS/openbind_xx01zvns2b_c2_elabs_1LOUTNY.sdf', '/opt/xchem-fragalysis-2/maxwin/BulkDock/OUTPUTS/openbind_xx01zvns2b_c2_elabs_1LSYIIV.sdf']

>  <tags>  (758) 
syndirella_placed,openbind_xx01zvns2b_c2_elabs,openbind_xx01zvns2b_c2_elabs_scored_6.2plus,syndirella_product,openbind_xx01zvns2b_c2_elabs_scored,openbind_xx01zvns2b_c2_elabs_scored_top80percent,BulkDock Fragalysis export

>  <subsites>  (758) 
1 - Z4590/B/203/1

>  <smiles>  (758) 
CCN1Cc2ccc(NC(=O)c3cc(C4CC4)nc4c3cnn4Cc3cccnc3)cc2C1

>  <HIPPO Pose ID>  (758) 
125683

>  <energy_score>  (758) 
-18.511339

>  <inchikey>  (758) 
NTOYFHDWJQQSLG-UHFFFAOYSA-N

>  <gnina_score_min>  (758) 
6.626

>  <gnina_score>  (758) 
6.527

>  <ref_mols>  (758) 
Z3559a

>  <HIPPO Compound ID>  (758) 
179639

>  <distance_score>  (758) 
0.454483

>  <rmsd(smina/fragmenstein)>  (758) 
0.58

>  <ref_pdb>  (758) 
Z3559a

>  <inspiration_score>  (758) 
None

$$$$
P125684
     RDKit          3D

 33 38  0  0  0  0  0  0  0  0999 V2000
  -10.1535    2.1639   -6.0768 C   0  0  0  0  0  0  0  0  0  0  0  0
   -9.3442    2.6649   -7.1574 N   0  0  0  0  0  0  0  0  0  0  0  0
   -8.6815    3.9463   -7.0889 C   0  0  0  0  0  0  0  0  0  0  0  0
   -8.3068    4.1973   -8.5092 C   0  0  0  0  0  0  0  0  0  0  0  0
   -7.6992    5.2972   -9.0779 C   0  0  0  0  0  0  0  0  0  0  0  0
   -7.5291    5.3068  -10.4670 C   0  0  0  0  0  0  0  0  0  0  0  0
   -7.9605    4.2306  -11.2687 C   0  0  0  0  0  0  0  0  0  0  0  0
   -7.8162    4.2846  -12.6543 N   0  0  0  0  0  0  0  0  0  0  0  0
   -7.0777    5.3088  -13.5485 C   0  0  0  0  0  0  0  0  0  0  0  0
   -6.5404    6.3083  -13.2702 O   0  0  0  0  0  0  0  0  0  0  0  0
   -7.1153    4.9434  -14.9850 C   0  0  0  0  0  0  0  0  0  0  0  0
   -8.2570    4.4257  -15.6104 C   0  0  0  0  0  0  0  0  0  0  0  0
   -8.2812    4.2472  -17.0001 C   0  0  0  0  0  0  0  0  0  0  0  0
   -9.5520    3.7761  -17.6732 C   0  0  0  0  0  0  0  0  0  0  0  0
   -9.5019    2.6123  -18.6319 C   0  0  0  0  0  0  0  0  0  0  0  0
   -9.7743    3.9924  -19.1490 C   0  0  0  0  0  0  0  0  0  0  0  0
   -7.2230    4.5494  -17.7908 N   0  0  0  0  0  0  0  0  0  0  0  0
   -6.1549    5.0457  -17.1538 C   0  0  0  0  0  0  0  0  0  0  0  0
   -6.0190    5.2621  -15.7967 C   0  0  0  0  0  0  0  0  0  0  0  0
   -4.7204    5.8006  -15.6589 C   0  0  0  0  0  0  0  0  0  0  0  0
   -4.0783    5.9228  -16.8282 N   0  0  0  0  0  0  0  0  0  0  0  0
   -4.9970    5.4919  -17.7293 N   0  0  0  0  0  0  0  0  0  0  0  0
   -4.7284    5.5800  -19.1573 C   0  0  0  0  0  0  0  0  0  0  0  0
   -4.8680    6.9665  -19.7412 C   0  0  0  0  0  0  0  0  0  0  0  0
   -4.5250    7.1831  -21.0820 C   0  0  0  0  0  0  0  0  0  0  0  0
   -4.6474    8.4526  -21.6415 C   0  0  0  0  0  0  0  0  0  0  0  0
   -5.1402    9.4735  -20.8483 C   0  0  0  0  0  0  0  0  0  0  0  0
   -5.5226    9.3055  -19.5646 N   0  0  0  0  0  0  0  0  0  0  0  0
   -5.3431    8.0685  -19.0355 C   0  0  0  0  0  0  0  0  0  0  0  0
   -8.5639    3.1174  -10.6846 C   0  0  0  0  0  0  0  0  0  0  0  0
   -8.7200    3.1326   -9.3090 C   0  0  0  0  0  0  0  0  0  0  0  0
   -9.4141    2.1692   -8.4481 C   0  0  0  0  0  0  0  0  0  0  0  0
  -10.0049    1.1887   -8.8498 O   0  0  0  0  0  0  0  0  0  0  0  0
  1  2  1  0
  2  3  1  0
  3  4  1  0
  4  5  2  0
  5  6  1  0
  6  7  2  0
  7  8  1  0
  8  9  1  0
  9 10  2  0
  9 11  1  0
 11 12  2  0
 12 13  1  0
 13 14  1  0
 14 15  1  0
 15 16  1  0
 13 17  2  0
 17 18  1  0
 18 19  2  0
 19 20  1  0
 20 21  2  0
 21 22  1  0
 22 23  1  0
 23 24  1  0
 24 25  2  0
 25 26  1  0
 26 27  2  0
 27 28  1  0
 28 29  2  0
  7 30  1  0
 30 31  2  0
 31 32  1  0
 32 33  2  0
 32  2  1  0
 31  4  1  0
 19 11  1  0
 29 24  1  0
 16 14  1  0
 22 18  1  0
M  END
>  <name>  (759) 
P125684

>  <alias>  (759) 
None

>  <smina_score_min>  (759) 
-9.079

>  <exports>  (759) 
['/opt/xchem-fragalysis-2/maxwin/BulkDock/OUTPUTS/openbind_xx01zvns2b_c2_elabs_1LOUTNY.sdf', '/opt/xchem-fragalysis-2/maxwin/BulkDock/OUTPUTS/openbind_xx01zvns2b_c2_elabs_1LSYIIV.sdf']

>  <tags>  (759) 
syndirella_placed,openbind_xx01zvns2b_c2_elabs,openbind_xx01zvns2b_c2_elabs_scored_6.2plus,syndirella_product,openbind_xx01zvns2b_c2_elabs_scored,openbind_xx01zvns2b_c2_elabs_scored_top80percent,BulkDock Fragalysis export

>  <subsites>  (759) 
1 - Z4590/B/203/1

>  <smiles>  (759) 
CN1Cc2ccc(NC(=O)c3cc(C4CC4)nc4c3cnn4Cc3cccnc3)cc2C1=O

>  <HIPPO Pose ID>  (759) 
125684

>  <energy_score>  (759) 
-121.520138

>  <inchikey>  (759) 
SYNABZFELAOUII-UHFFFAOYSA-N

>  <gnina_score_min>  (759) 
6.371

>  <gnina_score>  (759) 
6.45

>  <ref_mols>  (759) 
Z3559a

>  <HIPPO Compound ID>  (759) 
179640

>  <distance_score>  (759) 
0.357074

>  <rmsd(smina/fragmenstein)>  (759) 
0.312

>  <ref_pdb>  (759) 
Z3559a

>  <inspiration_score>  (759) 
None

$$$$
P125685
     RDKit          3D

 33 38  0  0  0  0  0  0  0  0999 V2000
   -9.9804    0.9940   -8.6786 O   0  0  0  0  0  0  0  0  0  0  0  0
   -9.4420    2.0118   -8.3025 C   0  0  0  0  0  0  0  0  0  0  0  0
   -9.3429    2.4542   -7.0008 N   0  0  0  0  0  0  0  0  0  0  0  0
   -8.6740    3.7193   -6.8935 C   0  0  0  0  0  0  0  0  0  0  0  0
   -8.3944    4.0621   -8.3162 C   0  0  0  0  0  0  0  0  0  0  0  0
   -7.8069    5.1862   -8.8530 C   0  0  0  0  0  0  0  0  0  0  0  0
   -7.6397    5.2431  -10.2399 C   0  0  0  0  0  0  0  0  0  0  0  0
   -7.0418    6.3426  -10.7125 F   0  0  0  0  0  0  0  0  0  0  0  0
   -8.0503    4.1931  -11.0942 C   0  0  0  0  0  0  0  0  0  0  0  0
   -7.8378    4.2105  -12.4825 N   0  0  0  0  0  0  0  0  0  0  0  0
   -7.2928    5.3303  -13.4024 C   0  0  0  0  0  0  0  0  0  0  0  0
   -6.8640    6.3845  -13.1393 O   0  0  0  0  0  0  0  0  0  0  0  0
   -7.2508    4.9382  -14.8265 C   0  0  0  0  0  0  0  0  0  0  0  0
   -8.3568    4.4460  -15.5229 C   0  0  0  0  0  0  0  0  0  0  0  0
   -8.2851    4.2596  -16.9122 C   0  0  0  0  0  0  0  0  0  0  0  0
   -9.5248    3.8134  -17.6647 C   0  0  0  0  0  0  0  0  0  0  0  0
   -9.6447    4.0177  -19.1542 C   0  0  0  0  0  0  0  0  0  0  0  0
   -9.4515    2.6370  -18.6064 C   0  0  0  0  0  0  0  0  0  0  0  0
   -7.1623    4.5274  -17.6325 N   0  0  0  0  0  0  0  0  0  0  0  0
   -6.1186    4.9733  -16.9149 C   0  0  0  0  0  0  0  0  0  0  0  0
   -6.0825    5.1968  -15.5523 C   0  0  0  0  0  0  0  0  0  0  0  0
   -4.7759    5.6699  -15.3033 C   0  0  0  0  0  0  0  0  0  0  0  0
   -4.0210    5.7173  -16.4066 N   0  0  0  0  0  0  0  0  0  0  0  0
   -4.8853    5.3413  -17.3846 N   0  0  0  0  0  0  0  0  0  0  0  0
   -4.4882    5.4599  -18.7771 C   0  0  0  0  0  0  0  0  0  0  0  0
   -4.4860    6.9097  -19.1678 C   0  0  0  0  0  0  0  0  0  0  0  0
   -3.3471    7.7129  -19.0850 C   0  0  0  0  0  0  0  0  0  0  0  0
   -3.4509    9.0790  -19.3296 C   0  0  0  0  0  0  0  0  0  0  0  0
   -4.6989    9.6010  -19.6294 C   0  0  0  0  0  0  0  0  0  0  0  0
   -5.8254    8.8592  -19.7113 N   0  0  0  0  0  0  0  0  0  0  0  0
   -5.6818    7.5282  -19.4976 C   0  0  0  0  0  0  0  0  0  0  0  0
   -8.6588    3.0633  -10.5328 C   0  0  0  0  0  0  0  0  0  0  0  0
   -8.8210    3.0333   -9.1544 C   0  0  0  0  0  0  0  0  0  0  0  0
  1  2  2  0
  2  3  1  0
  3  4  1  0
  4  5  1  0
  5  6  2  0
  6  7  1  0
  7  8  1  0
  7  9  2  0
  9 10  1  0
 10 11  1  0
 11 12  2  0
 11 13  1  0
 13 14  2  0
 14 15  1  0
 15 16  1  0
 16 17  1  0
 17 18  1  0
 15 19  2  0
 19 20  1  0
 20 21  2  0
 21 22  1  0
 22 23  2  0
 23 24  1  0
 24 25  1  0
 25 26  1  0
 26 27  2  0
 27 28  1  0
 28 29  2  0
 29 30  1  0
 30 31  2  0
  9 32  1  0
 32 33  2  0
 33  2  1  0
 33  5  1  0
 21 13  1  0
 31 26  1  0
 18 16  1  0
 24 20  1  0
M  END
>  <name>  (760) 
P125685

>  <alias>  (760) 
None

>  <smina_score_min>  (760) 
-9.129

>  <exports>  (760) 
['/opt/xchem-fragalysis-2/maxwin/BulkDock/OUTPUTS/openbind_xx01zvns2b_c2_elabs_1LOUTNY.sdf', '/opt/xchem-fragalysis-2/maxwin/BulkDock/OUTPUTS/openbind_xx01zvns2b_c2_elabs_1LSYIIV.sdf']

>  <tags>  (760) 
syndirella_placed,openbind_xx01zvns2b_c2_elabs,openbind_xx01zvns2b_c2_elabs_scored_6.2plus,syndirella_product,openbind_xx01zvns2b_c2_elabs_scored,openbind_xx01zvns2b_c2_elabs_scored_top80percent,BulkDock Fragalysis export

>  <subsites>  (760) 
1 - Z4590/B/203/1

>  <smiles>  (760) 
O=C1NCc2cc(F)c(NC(=O)c3cc(C4CC4)nc4c3cnn4Cc3cccnc3)cc21

>  <HIPPO Pose ID>  (760) 
125685

>  <energy_score>  (760) 
-34.668072

>  <inchikey>  (760) 
RMOUNVWMFUUFAX-UHFFFAOYSA-N

>  <gnina_score_min>  (760) 
6.356

>  <gnina_score>  (760) 
6.592

>  <ref_mols>  (760) 
Z3559a

>  <HIPPO Compound ID>  (760) 
179655

>  <distance_score>  (760) 
0.400481

>  <rmsd(smina/fragmenstein)>  (760) 
0.861

>  <ref_pdb>  (760) 
Z3559a

>  <inspiration_score>  (760) 
None

$$$$
P125686
     RDKit          3D

 33 38  0  0  0  0  0  0  0  0999 V2000
   -9.9720    2.1338   -6.1244 C   0  0  0  0  0  0  0  0  0  0  0  0
   -9.2378    2.6823   -7.2342 N   0  0  0  0  0  0  0  0  0  0  0  0
   -9.2090    2.0239   -8.5286 C   0  0  0  0  0  0  0  0  0  0  0  0
   -8.6062    3.0673   -9.4074 C   0  0  0  0  0  0  0  0  0  0  0  0
   -8.4035    3.0627  -10.7785 C   0  0  0  0  0  0  0  0  0  0  0  0
   -7.8402    4.2009  -11.3681 C   0  0  0  0  0  0  0  0  0  0  0  0
   -7.6667    4.2261  -12.7505 N   0  0  0  0  0  0  0  0  0  0  0  0
   -7.0124    5.2917  -13.6620 C   0  0  0  0  0  0  0  0  0  0  0  0
   -6.5859    6.3487  -13.4056 O   0  0  0  0  0  0  0  0  0  0  0  0
   -7.0396    4.9061  -15.0937 C   0  0  0  0  0  0  0  0  0  0  0  0
   -8.1885    4.3760  -15.6952 C   0  0  0  0  0  0  0  0  0  0  0  0
   -8.2587    4.2456  -17.0867 C   0  0  0  0  0  0  0  0  0  0  0  0
   -9.5407    3.7604  -17.7241 C   0  0  0  0  0  0  0  0  0  0  0  0
   -9.5029    2.5787  -18.6600 C   0  0  0  0  0  0  0  0  0  0  0  0
   -9.7960    3.9471  -19.1976 C   0  0  0  0  0  0  0  0  0  0  0  0
   -7.2484    4.6242  -17.9050 N   0  0  0  0  0  0  0  0  0  0  0  0
   -6.1663    5.1239  -17.2913 C   0  0  0  0  0  0  0  0  0  0  0  0
   -5.9796    5.2789  -15.9305 C   0  0  0  0  0  0  0  0  0  0  0  0
   -4.7032    5.8696  -15.8211 C   0  0  0  0  0  0  0  0  0  0  0  0
   -4.1410    6.1253  -17.0094 N   0  0  0  0  0  0  0  0  0  0  0  0
   -5.0799    5.7057  -17.8986 N   0  0  0  0  0  0  0  0  0  0  0  0
   -5.0970    6.2701  -19.2406 C   0  0  0  0  0  0  0  0  0  0  0  0
   -4.4672    5.4313  -20.3045 C   0  0  0  0  0  0  0  0  0  0  0  0
   -5.1893    4.4349  -20.9621 C   0  0  0  0  0  0  0  0  0  0  0  0
   -4.6041    3.7442  -22.0164 C   0  0  0  0  0  0  0  0  0  0  0  0
   -3.3255    4.0950  -22.4065 C   0  0  0  0  0  0  0  0  0  0  0  0
   -2.5919    5.0407  -21.7893 N   0  0  0  0  0  0  0  0  0  0  0  0
   -3.1681    5.6714  -20.7394 C   0  0  0  0  0  0  0  0  0  0  0  0
   -7.4887    5.3139  -10.5792 C   0  0  0  0  0  0  0  0  0  0  0  0
   -7.7088    5.3161   -9.1994 C   0  0  0  0  0  0  0  0  0  0  0  0
   -8.2655    4.1828   -8.6455 C   0  0  0  0  0  0  0  0  0  0  0  0
   -8.6797    3.9432   -7.2574 C   0  0  0  0  0  0  0  0  0  0  0  0
   -8.5847    4.7575   -6.3572 O   0  0  0  0  0  0  0  0  0  0  0  0
  1  2  1  0
  2  3  1  0
  3  4  1  0
  4  5  2  0
  5  6  1  0
  6  7  1  0
  7  8  1  0
  8  9  2  0
  8 10  1  0
 10 11  2  0
 11 12  1  0
 12 13  1  0
 13 14  1  0
 14 15  1  0
 12 16  2  0
 16 17  1  0
 17 18  2  0
 18 19  1  0
 19 20  2  0
 20 21  1  0
 21 22  1  0
 22 23  1  0
 23 24  2  0
 24 25  1  0
 25 26  2  0
 26 27  1  0
 27 28  2  0
  6 29  2  0
 29 30  1  0
 30 31  2  0
 31 32  1  0
 32 33  2  0
 32  2  1  0
 31  4  1  0
 18 10  1  0
 28 23  1  0
 15 13  1  0
 21 17  1  0
M  END
>  <name>  (761) 
P125686

>  <alias>  (761) 
None

>  <smina_score_min>  (761) 
-9.995

>  <exports>  (761) 
['/opt/xchem-fragalysis-2/maxwin/BulkDock/OUTPUTS/openbind_xx01zvns2b_c2_elabs_1LOUTNY.sdf', '/opt/xchem-fragalysis-2/maxwin/BulkDock/OUTPUTS/openbind_xx01zvns2b_c2_elabs_1LSYIIV.sdf']

>  <tags>  (761) 
syndirella_placed,openbind_xx01zvns2b_c2_elabs,openbind_xx01zvns2b_c2_elabs_scored_6.2plus,syndirella_product,openbind_xx01zvns2b_c2_elabs_scored,openbind_xx01zvns2b_c2_elabs_scored_top80percent,BulkDock Fragalysis export

>  <subsites>  (761) 
1 - Z4590/B/203/1

>  <smiles>  (761) 
CN1Cc2cc(NC(=O)c3cc(C4CC4)nc4c3cnn4Cc3cccnc3)ccc2C1=O

>  <HIPPO Pose ID>  (761) 
125686

>  <energy_score>  (761) 
-30.537057

>  <inchikey>  (761) 
GKJAEWNISFFOJP-UHFFFAOYSA-N

>  <gnina_score_min>  (761) 
6.507

>  <gnina_score>  (761) 
6.431

>  <ref_mols>  (761) 
Z3559a

>  <HIPPO Compound ID>  (761) 
179645

>  <distance_score>  (761) 
0.428535

>  <rmsd(smina/fragmenstein)>  (761) 
0.302

>  <ref_pdb>  (761) 
Z3559a

>  <inspiration_score>  (761) 
None

$$$$
P125687
     RDKit          3D

 33 38  0  0  0  0  0  0  0  0999 V2000
   -7.9303    4.2210   -6.0349 O   0  0  0  0  0  0  0  0  0  0  0  0
   -8.3651    3.5984   -6.9868 C   0  0  0  0  0  0  0  0  0  0  0  0
   -9.0586    2.4294   -6.9928 N   0  0  0  0  0  0  0  0  0  0  0  0
   -9.3304    1.9999   -8.2575 C   0  0  0  0  0  0  0  0  0  0  0  0
   -9.9773    1.0289   -8.5881 O   0  0  0  0  0  0  0  0  0  0  0  0
   -8.7458    2.9813   -9.1743 C   0  0  0  0  0  0  0  0  0  0  0  0
   -8.6929    3.0189  -10.5607 C   0  0  0  0  0  0  0  0  0  0  0  0
   -8.0665    4.1229  -11.1518 C   0  0  0  0  0  0  0  0  0  0  0  0
   -7.9435    4.1959  -12.5425 N   0  0  0  0  0  0  0  0  0  0  0  0
   -7.2704    5.2683  -13.4395 C   0  0  0  0  0  0  0  0  0  0  0  0
   -6.7830    6.2937  -13.1588 O   0  0  0  0  0  0  0  0  0  0  0  0
   -7.2717    4.9146  -14.8826 C   0  0  0  0  0  0  0  0  0  0  0  0
   -8.3894    4.3857  -15.5422 C   0  0  0  0  0  0  0  0  0  0  0  0
   -8.3775    4.2193  -16.9350 C   0  0  0  0  0  0  0  0  0  0  0  0
   -9.6246    3.7625  -17.6591 C   0  0  0  0  0  0  0  0  0  0  0  0
   -9.7732    3.9668  -19.1476 C   0  0  0  0  0  0  0  0  0  0  0  0
   -9.5504    2.5884  -18.6041 C   0  0  0  0  0  0  0  0  0  0  0  0
   -7.3015    4.5276  -17.6945 N   0  0  0  0  0  0  0  0  0  0  0  0
   -6.2640    5.0506  -17.0315 C   0  0  0  0  0  0  0  0  0  0  0  0
   -6.1661    5.2701  -15.6724 C   0  0  0  0  0  0  0  0  0  0  0  0
   -4.8912    5.8583  -15.5170 C   0  0  0  0  0  0  0  0  0  0  0  0
   -4.2374    6.0107  -16.6762 N   0  0  0  0  0  0  0  0  0  0  0  0
   -5.1084    5.5265  -17.5942 N   0  0  0  0  0  0  0  0  0  0  0  0
   -4.8827    5.5875  -19.0354 C   0  0  0  0  0  0  0  0  0  0  0  0
   -3.5760    6.1956  -19.4576 C   0  0  0  0  0  0  0  0  0  0  0  0
   -2.3689    5.4948  -19.3826 C   0  0  0  0  0  0  0  0  0  0  0  0
   -1.1913    6.1015  -19.8081 C   0  0  0  0  0  0  0  0  0  0  0  0
   -1.2571    7.3945  -20.2980 C   0  0  0  0  0  0  0  0  0  0  0  0
   -2.4011    8.1072  -20.3854 N   0  0  0  0  0  0  0  0  0  0  0  0
   -3.5272    7.4944  -19.9553 C   0  0  0  0  0  0  0  0  0  0  0  0
   -7.5372    5.1533  -10.3426 C   0  0  0  0  0  0  0  0  0  0  0  0
   -7.5949    5.0887   -8.9454 C   0  0  0  0  0  0  0  0  0  0  0  0
   -8.1961    3.9803   -8.3906 C   0  0  0  0  0  0  0  0  0  0  0  0
  1  2  2  0
  2  3  1  0
  3  4  1  0
  4  5  2  0
  4  6  1  0
  6  7  2  0
  7  8  1  0
  8  9  1  0
  9 10  1  0
 10 11  2  0
 10 12  1  0
 12 13  2  0
 13 14  1  0
 14 15  1  0
 15 16  1  0
 16 17  1  0
 14 18  2  0
 18 19  1  0
 19 20  2  0
 20 21  1  0
 21 22  2  0
 22 23  1  0
 23 24  1  0
 24 25  1  0
 25 26  2  0
 26 27  1  0
 27 28  2  0
 28 29  1  0
 29 30  2  0
  8 31  2  0
 31 32  1  0
 32 33  2  0
 33  2  1  0
 33  6  1  0
 20 12  1  0
 30 25  1  0
 17 15  1  0
 23 19  1  0
M  END
>  <name>  (762) 
P125687

>  <alias>  (762) 
None

>  <smina_score_min>  (762) 
-9.177

>  <exports>  (762) 
['/opt/xchem-fragalysis-2/maxwin/BulkDock/OUTPUTS/openbind_xx01zvns2b_c2_elabs_1LOUTNY.sdf', '/opt/xchem-fragalysis-2/maxwin/BulkDock/OUTPUTS/openbind_xx01zvns2b_c2_elabs_1LSYIIV.sdf']

>  <tags>  (762) 
syndirella_placed,openbind_xx01zvns2b_c2_elabs,openbind_xx01zvns2b_c2_elabs_scored_6.2plus,syndirella_product,openbind_xx01zvns2b_c2_elabs_scored,openbind_xx01zvns2b_c2_elabs_scored_top80percent,BulkDock Fragalysis export

>  <subsites>  (762) 
1 - Z4590/B/203/1

>  <smiles>  (762) 
O=C1NC(=O)c2cc(NC(=O)c3cc(C4CC4)nc4c3cnn4Cc3cccnc3)ccc21

>  <HIPPO Pose ID>  (762) 
125687

>  <energy_score>  (762) 
-39.010921

>  <inchikey>  (762) 
KPAACEWPCTXKKL-UHFFFAOYSA-N

>  <gnina_score_min>  (762) 
6.29

>  <gnina_score>  (762) 
6.382

>  <ref_mols>  (762) 
Z3559a

>  <HIPPO Compound ID>  (762) 
179646

>  <distance_score>  (762) 
0.327478

>  <rmsd(smina/fragmenstein)>  (762) 
0.316

>  <ref_pdb>  (762) 
Z3559a

>  <inspiration_score>  (762) 
None

$$$$
P125688
     RDKit          3D

 33 37  0  0  0  0  0  0  0  0999 V2000
   -3.9730    6.1423  -14.6850 C   0  0  0  0  0  0  0  0  0  0  0  0
   -4.7222    5.7587  -15.9081 C   0  0  0  0  0  0  0  0  0  0  0  0
   -4.1345    5.8884  -17.1106 N   0  0  0  0  0  0  0  0  0  0  0  0
   -5.0949    5.4893  -17.9751 N   0  0  0  0  0  0  0  0  0  0  0  0
   -4.9133    5.6857  -19.3941 C   0  0  0  0  0  0  0  0  0  0  0  0
   -4.7743    7.1561  -19.7089 C   0  0  0  0  0  0  0  0  0  0  0  0
   -5.9363    7.8263  -19.4770 F   0  0  0  0  0  0  0  0  0  0  0  0
   -4.5048    7.3181  -21.0326 F   0  0  0  0  0  0  0  0  0  0  0  0
   -6.2174    5.0159  -17.3649 C   0  0  0  0  0  0  0  0  0  0  0  0
   -7.2950    4.5052  -17.9718 N   0  0  0  0  0  0  0  0  0  0  0  0
   -8.3398    4.2156  -17.1627 C   0  0  0  0  0  0  0  0  0  0  0  0
   -9.6208    3.7473  -17.8059 C   0  0  0  0  0  0  0  0  0  0  0  0
   -9.6015    2.5256  -18.6864 C   0  0  0  0  0  0  0  0  0  0  0  0
   -9.8280    3.8795  -19.2915 C   0  0  0  0  0  0  0  0  0  0  0  0
   -8.2986    4.4212  -15.7835 C   0  0  0  0  0  0  0  0  0  0  0  0
   -7.1468    4.9531  -15.1962 C   0  0  0  0  0  0  0  0  0  0  0  0
   -7.1580    5.4211  -13.8024 C   0  0  0  0  0  0  0  0  0  0  0  0
   -6.7644    6.5037  -13.6093 O   0  0  0  0  0  0  0  0  0  0  0  0
   -7.7581    4.3842  -12.8259 N   0  0  0  0  0  0  0  0  0  0  0  0
   -7.9062    4.4254  -11.4457 C   0  0  0  0  0  0  0  0  0  0  0  0
   -7.4454    5.5645  -10.7536 C   0  0  0  0  0  0  0  0  0  0  0  0
   -7.5558    5.6693   -9.3740 C   0  0  0  0  0  0  0  0  0  0  0  0
   -8.1451    4.6205   -8.7098 C   0  0  0  0  0  0  0  0  0  0  0  0
   -8.6185    3.5003   -9.3900 C   0  0  0  0  0  0  0  0  0  0  0  0
   -8.5034    3.3652  -10.7615 C   0  0  0  0  0  0  0  0  0  0  0  0
   -9.2450    2.6171   -8.3954 C   0  0  0  0  0  0  0  0  0  0  0  0
   -9.7477    1.5433   -8.6555 O   0  0  0  0  0  0  0  0  0  0  0  0
   -9.1621    3.2782   -7.1647 N   0  0  0  0  0  0  0  0  0  0  0  0
   -9.3982    2.6219   -5.8880 C   0  0  0  0  0  0  0  0  0  0  0  0
  -10.8305    2.1271   -5.7560 C   0  0  0  0  0  0  0  0  0  0  0  0
   -9.0810    3.5192   -4.6816 C   0  0  0  0  0  0  0  0  0  0  0  0
   -8.3636    4.4751   -7.2562 C   0  0  0  0  0  0  0  0  0  0  0  0
   -6.0452    5.2426  -16.0145 C   0  0  0  0  0  0  0  0  0  0  0  0
  1  2  1  0
  2  3  2  0
  3  4  1  0
  4  5  1  0
  5  6  1  0
  6  7  1  0
  6  8  1  0
  4  9  1  0
  9 10  2  0
 10 11  1  0
 11 12  1  0
 12 13  1  0
 13 14  1  0
 11 15  2  0
 15 16  1  0
 16 17  1  0
 17 18  2  0
 17 19  1  0
 19 20  1  0
 20 21  2  0
 21 22  1  0
 22 23  2  0
 23 24  1  0
 24 25  2  0
 24 26  1  0
 26 27  2  0
 26 28  1  0
 28 29  1  0
 29 30  1  0
 29 31  1  0
 28 32  1  0
 16 33  2  0
 33  2  1  0
 33  9  1  0
 14 12  1  0
 25 20  1  0
 32 23  1  0
M  END
>  <name>  (763) 
P125688

>  <alias>  (763) 
None

>  <smina_score_min>  (763) 
-8.721

>  <exports>  (763) 
['/opt/xchem-fragalysis-2/maxwin/BulkDock/OUTPUTS/openbind_xx01zvns2b_c2_elabs_1LOUTNY.sdf', '/opt/xchem-fragalysis-2/maxwin/BulkDock/OUTPUTS/openbind_xx01zvns2b_c2_elabs_1LSYIIV.sdf']

>  <tags>  (763) 
syndirella_placed,openbind_xx01zvns2b_c2_elabs,openbind_xx01zvns2b_c2_elabs_scored_6.2plus,syndirella_product,openbind_xx01zvns2b_c2_elabs_scored,openbind_xx01zvns2b_c2_elabs_scored_top80percent,BulkDock Fragalysis export

>  <subsites>  (763) 
1 - Z4590/B/203/1

>  <smiles>  (763) 
Cc1nn(CC(F)F)c2nc(C3CC3)cc(C(=O)Nc3ccc4c(c3)C(=O)N(C(C)C)C4)c12

>  <HIPPO Pose ID>  (763) 
125688

>  <energy_score>  (763) 
-25.43701

>  <inchikey>  (763) 
LCNCMLDUHXXFGG-UHFFFAOYSA-N

>  <gnina_score_min>  (763) 
6.232

>  <gnina_score>  (763) 
6.422

>  <ref_mols>  (763) 
Z3559a

>  <HIPPO Compound ID>  (763) 
179678

>  <distance_score>  (763) 
0.572314

>  <rmsd(smina/fragmenstein)>  (763) 
0.471

>  <ref_pdb>  (763) 
Z3559a

>  <inspiration_score>  (763) 
None

$$$$
P125689
     RDKit          3D

 33 37  0  0  0  0  0  0  0  0999 V2000
   -3.8258    6.2783  -14.7923 C   0  0  0  0  0  0  0  0  0  0  0  0
   -4.6070    5.8405  -15.9761 C   0  0  0  0  0  0  0  0  0  0  0  0
   -4.0420    5.8874  -17.1964 N   0  0  0  0  0  0  0  0  0  0  0  0
   -5.0304    5.4713  -18.0185 N   0  0  0  0  0  0  0  0  0  0  0  0
   -4.8580    5.4488  -19.4526 C   0  0  0  0  0  0  0  0  0  0  0  0
   -5.1218    6.7943  -20.0874 C   0  0  0  0  0  0  0  0  0  0  0  0
   -6.1472    7.4637  -19.5039 F   0  0  0  0  0  0  0  0  0  0  0  0
   -4.0310    7.5986  -19.9682 F   0  0  0  0  0  0  0  0  0  0  0  0
   -6.1508    5.0619  -17.3579 C   0  0  0  0  0  0  0  0  0  0  0  0
   -7.2461    4.5367  -17.9217 N   0  0  0  0  0  0  0  0  0  0  0  0
   -8.2675    4.2710  -17.0797 C   0  0  0  0  0  0  0  0  0  0  0  0
   -9.5608    3.7684  -17.6777 C   0  0  0  0  0  0  0  0  0  0  0  0
   -9.5339    2.6106  -18.6451 C   0  0  0  0  0  0  0  0  0  0  0  0
   -9.8724    3.9857  -19.1372 C   0  0  0  0  0  0  0  0  0  0  0  0
   -8.1788    4.5127  -15.7077 C   0  0  0  0  0  0  0  0  0  0  0  0
   -7.0047    5.0549  -15.1621 C   0  0  0  0  0  0  0  0  0  0  0  0
   -6.9466    5.4386  -13.7383 C   0  0  0  0  0  0  0  0  0  0  0  0
   -6.5533    6.5006  -13.4587 O   0  0  0  0  0  0  0  0  0  0  0  0
   -7.4727    4.2989  -12.8416 N   0  0  0  0  0  0  0  0  0  0  0  0
   -7.7058    4.2620  -11.4726 C   0  0  0  0  0  0  0  0  0  0  0  0
   -7.4706    5.3886  -10.6646 C   0  0  0  0  0  0  0  0  0  0  0  0
   -7.7487    5.3610   -9.2967 C   0  0  0  0  0  0  0  0  0  0  0  0
   -8.2723    4.1980   -8.7724 C   0  0  0  0  0  0  0  0  0  0  0  0
   -8.4951    3.0721   -9.5725 C   0  0  0  0  0  0  0  0  0  0  0  0
   -8.2126    3.0829  -10.9229 C   0  0  0  0  0  0  0  0  0  0  0  0
   -9.0966    1.9897   -8.7315 C   0  0  0  0  0  0  0  0  0  0  0  0
   -9.6341    2.7522   -7.5977 N   0  0  0  0  0  0  0  0  0  0  0  0
   -9.9294    1.9682   -6.4085 C   0  0  0  0  0  0  0  0  0  0  0  0
  -10.8351    2.7524   -5.4592 C   0  0  0  0  0  0  0  0  0  0  0  0
  -11.4602    1.9422   -4.5775 F   0  0  0  0  0  0  0  0  0  0  0  0
  -10.1136    3.6458   -4.7278 F   0  0  0  0  0  0  0  0  0  0  0  0
   -8.7350    3.8964   -7.3841 C   0  0  0  0  0  0  0  0  0  0  0  0
   -5.9360    5.3337  -16.0216 C   0  0  0  0  0  0  0  0  0  0  0  0
  1  2  1  0
  2  3  2  0
  3  4  1  0
  4  5  1  0
  5  6  1  0
  6  7  1  0
  6  8  1  0
  4  9  1  0
  9 10  2  0
 10 11  1  0
 11 12  1  0
 12 13  1  0
 13 14  1  0
 11 15  2  0
 15 16  1  0
 16 17  1  0
 17 18  2  0
 17 19  1  0
 19 20  1  0
 20 21  2  0
 21 22  1  0
 22 23  2  0
 23 24  1  0
 24 25  2  0
 24 26  1  0
 26 27  1  0
 27 28  1  0
 28 29  1  0
 29 30  1  0
 29 31  1  0
 27 32  1  0
 16 33  2  0
 33  2  1  0
 33  9  1  0
 14 12  1  0
 25 20  1  0
 32 23  1  0
M  END
>  <name>  (764) 
P125689

>  <alias>  (764) 
None

>  <smina_score_min>  (764) 
-9.227

>  <exports>  (764) 
['/opt/xchem-fragalysis-2/maxwin/BulkDock/OUTPUTS/openbind_xx01zvns2b_c2_elabs_1LOUTNY.sdf', '/opt/xchem-fragalysis-2/maxwin/BulkDock/OUTPUTS/openbind_xx01zvns2b_c2_elabs_1LSYIIV.sdf']

>  <tags>  (764) 
syndirella_placed,openbind_xx01zvns2b_c2_elabs,openbind_xx01zvns2b_c2_elabs_scored_6.2plus,syndirella_product,openbind_xx01zvns2b_c2_elabs_scored,openbind_xx01zvns2b_c2_elabs_scored_top80percent,BulkDock Fragalysis export

>  <subsites>  (764) 
1 - Z4590/B/203/1

>  <smiles>  (764) 
Cc1nn(CC(F)F)c2nc(C3CC3)cc(C(=O)Nc3ccc4c(c3)CN(CC(F)F)C4)c12

>  <HIPPO Pose ID>  (764) 
125689

>  <energy_score>  (764) 
-43.897545

>  <inchikey>  (764) 
XHMDYVMDZWFKDX-UHFFFAOYSA-N

>  <gnina_score_min>  (764) 
6.516

>  <gnina_score>  (764) 
6.537

>  <ref_mols>  (764) 
Z3559a

>  <HIPPO Compound ID>  (764) 
179677

>  <distance_score>  (764) 
0.511084

>  <rmsd(smina/fragmenstein)>  (764) 
0.415

>  <ref_pdb>  (764) 
Z3559a

>  <inspiration_score>  (764) 
None

$$$$
P125690
     RDKit          3D

 33 38  0  0  0  0  0  0  0  0999 V2000
   -9.8296    1.8888   -6.2572 C   0  0  0  0  0  0  0  0  0  0  0  0
   -9.5084    2.7491   -7.3583 N   0  0  0  0  0  0  0  0  0  0  0  0
   -8.6539    3.9066   -7.2076 C   0  0  0  0  0  0  0  0  0  0  0  0
   -8.3024    4.2308   -8.6197 C   0  0  0  0  0  0  0  0  0  0  0  0
   -7.6430    5.3196   -9.1491 C   0  0  0  0  0  0  0  0  0  0  0  0
   -7.4477    5.3561  -10.5361 C   0  0  0  0  0  0  0  0  0  0  0  0
   -7.8920    4.3080  -11.3670 C   0  0  0  0  0  0  0  0  0  0  0  0
   -7.6788    4.3385  -12.7397 N   0  0  0  0  0  0  0  0  0  0  0  0
   -7.0093    5.4099  -13.6271 C   0  0  0  0  0  0  0  0  0  0  0  0
   -6.4631    6.3997  -13.3364 O   0  0  0  0  0  0  0  0  0  0  0  0
   -7.0648    5.0469  -15.0624 C   0  0  0  0  0  0  0  0  0  0  0  0
   -8.2038    4.5056  -15.6630 C   0  0  0  0  0  0  0  0  0  0  0  0
   -8.2238    4.2789  -17.0406 C   0  0  0  0  0  0  0  0  0  0  0  0
   -9.4963    3.7768  -17.6892 C   0  0  0  0  0  0  0  0  0  0  0  0
   -9.7609    3.9965  -19.1563 C   0  0  0  0  0  0  0  0  0  0  0  0
   -9.4404    2.6204  -18.6556 C   0  0  0  0  0  0  0  0  0  0  0  0
   -7.1626    4.5526  -17.8354 N   0  0  0  0  0  0  0  0  0  0  0  0
   -6.0784    5.0770  -17.2322 C   0  0  0  0  0  0  0  0  0  0  0  0
   -5.9669    5.3433  -15.8783 C   0  0  0  0  0  0  0  0  0  0  0  0
   -4.6805    5.8826  -15.7230 C   0  0  0  0  0  0  0  0  0  0  0  0
   -4.0053    5.9565  -16.8686 N   0  0  0  0  0  0  0  0  0  0  0  0
   -4.8701    5.4646  -17.8106 N   0  0  0  0  0  0  0  0  0  0  0  0
   -4.4525    5.4140  -19.1764 C   0  0  0  0  0  0  0  0  0  0  0  0
   -3.1428    5.8140  -19.5087 C   0  0  0  0  0  0  0  0  0  0  0  0
   -2.6935    5.7504  -20.8305 C   0  0  0  0  0  0  0  0  0  0  0  0
   -3.5483    5.2911  -21.8224 C   0  0  0  0  0  0  0  0  0  0  0  0
   -3.1193    5.2280  -23.0895 F   0  0  0  0  0  0  0  0  0  0  0  0
   -4.8438    4.9000  -21.5163 C   0  0  0  0  0  0  0  0  0  0  0  0
   -5.3002    4.9625  -20.1949 C   0  0  0  0  0  0  0  0  0  0  0  0
   -8.5556    3.2123  -10.8260 C   0  0  0  0  0  0  0  0  0  0  0  0
   -8.7544    3.2162   -9.4609 C   0  0  0  0  0  0  0  0  0  0  0  0
   -9.4878    2.2505   -8.6497 C   0  0  0  0  0  0  0  0  0  0  0  0
   -9.9867    1.2305   -9.0749 O   0  0  0  0  0  0  0  0  0  0  0  0
  1  2  1  0
  2  3  1  0
  3  4  1  0
  4  5  2  0
  5  6  1  0
  6  7  2  0
  7  8  1  0
  8  9  1  0
  9 10  2  0
  9 11  1  0
 11 12  2  0
 12 13  1  0
 13 14  1  0
 14 15  1  0
 15 16  1  0
 13 17  2  0
 17 18  1  0
 18 19  2  0
 19 20  1  0
 20 21  2  0
 21 22  1  0
 22 23  1  0
 23 24  2  0
 24 25  1  0
 25 26  2  0
 26 27  1  0
 26 28  1  0
 28 29  2  0
  7 30  1  0
 30 31  2  0
 31 32  1  0
 32 33  2  0
 32  2  1  0
 31  4  1  0
 19 11  1  0
 29 23  1  0
 16 14  1  0
 22 18  1  0
M  END
>  <name>  (765) 
P125690

>  <alias>  (765) 
None

>  <smina_score_min>  (765) 
-9.542

>  <exports>  (765) 
['/opt/xchem-fragalysis-2/maxwin/BulkDock/OUTPUTS/openbind_xx01zvns2b_c2_elabs_1LOUTNY.sdf', '/opt/xchem-fragalysis-2/maxwin/BulkDock/OUTPUTS/openbind_xx01zvns2b_c2_elabs_1LSYIIV.sdf']

>  <tags>  (765) 
syndirella_placed,openbind_xx01zvns2b_c2_elabs,openbind_xx01zvns2b_c2_elabs_scored_6.2plus,syndirella_product,openbind_xx01zvns2b_c2_elabs_scored,openbind_xx01zvns2b_c2_elabs_scored_top80percent,BulkDock Fragalysis export

>  <subsites>  (765) 
1 - Z4590/B/203/1

>  <smiles>  (765) 
CN1Cc2ccc(NC(=O)c3cc(C4CC4)nc4c3cnn4-c3ccc(F)cc3)cc2C1=O

>  <HIPPO Pose ID>  (765) 
125690

>  <energy_score>  (765) 
-59.69676

>  <inchikey>  (765) 
NXMXHNPNPFJTJI-UHFFFAOYSA-N

>  <gnina_score_min>  (765) 
6.342

>  <gnina_score>  (765) 
6.434

>  <ref_mols>  (765) 
Z3559a

>  <HIPPO Compound ID>  (765) 
179611

>  <distance_score>  (765) 
0.44849

>  <rmsd(smina/fragmenstein)>  (765) 
0.618

>  <ref_pdb>  (765) 
Z3559a

>  <inspiration_score>  (765) 
None

$$$$
P125692
     RDKit          3D

 33 37  0  0  0  0  0  0  0  0999 V2000
   -4.0379    6.3097  -14.3111 C   0  0  0  0  0  0  0  0  0  0  0  0
   -4.6877    5.9041  -15.5829 C   0  0  0  0  0  0  0  0  0  0  0  0
   -4.0233    6.0451  -16.7342 N   0  0  0  0  0  0  0  0  0  0  0  0
   -4.8916    5.6145  -17.6860 N   0  0  0  0  0  0  0  0  0  0  0  0
   -4.5466    5.8788  -19.0938 C   0  0  0  0  0  0  0  0  0  0  0  0
   -4.7510    7.3842  -19.3705 C   0  0  0  0  0  0  0  0  0  0  0  0
   -5.4101    5.1020  -20.0932 C   0  0  0  0  0  0  0  0  0  0  0  0
   -3.0662    5.5269  -19.3621 C   0  0  0  0  0  0  0  0  0  0  0  0
   -6.0658    5.1318  -17.1491 C   0  0  0  0  0  0  0  0  0  0  0  0
   -7.1198    4.6016  -17.7984 N   0  0  0  0  0  0  0  0  0  0  0  0
   -8.1962    4.2828  -17.0366 C   0  0  0  0  0  0  0  0  0  0  0  0
   -9.4521    3.7779  -17.7194 C   0  0  0  0  0  0  0  0  0  0  0  0
   -9.3817    2.6040  -18.6623 C   0  0  0  0  0  0  0  0  0  0  0  0
   -9.6672    3.9744  -19.1974 C   0  0  0  0  0  0  0  0  0  0  0  0
   -8.2210    4.4894  -15.6583 C   0  0  0  0  0  0  0  0  0  0  0  0
   -7.1137    5.0562  -15.0275 C   0  0  0  0  0  0  0  0  0  0  0  0
   -7.1997    5.4988  -13.6288 C   0  0  0  0  0  0  0  0  0  0  0  0
   -6.9487    6.6122  -13.3886 O   0  0  0  0  0  0  0  0  0  0  0  0
   -7.6010    4.3412  -12.6945 N   0  0  0  0  0  0  0  0  0  0  0  0
   -7.8608    4.3316  -11.3302 C   0  0  0  0  0  0  0  0  0  0  0  0
   -7.7347    5.5143  -10.5819 C   0  0  0  0  0  0  0  0  0  0  0  0
   -7.9636    5.5181   -9.2092 C   0  0  0  0  0  0  0  0  0  0  0  0
   -8.3215    4.3264   -8.6129 C   0  0  0  0  0  0  0  0  0  0  0  0
   -8.4593    3.1535   -9.3489 C   0  0  0  0  0  0  0  0  0  0  0  0
   -8.2324    3.1348  -10.7142 C   0  0  0  0  0  0  0  0  0  0  0  0
   -8.8802    2.0416   -8.4430 C   0  0  0  0  0  0  0  0  0  0  0  0
   -8.9022    2.6342   -7.0852 N   0  0  0  0  0  0  0  0  0  0  0  0
  -10.0809    2.2418   -6.3169 C   0  0  0  0  0  0  0  0  0  0  0  0
  -10.3872    2.9976   -5.0203 C   0  0  0  0  0  0  0  0  0  0  0  0
  -10.9249    4.2175   -5.3037 F   0  0  0  0  0  0  0  0  0  0  0  0
   -9.2852    3.2430   -4.2728 F   0  0  0  0  0  0  0  0  0  0  0  0
   -8.6555    4.0752   -7.1841 C   0  0  0  0  0  0  0  0  0  0  0  0
   -5.9806    5.3642  -15.7865 C   0  0  0  0  0  0  0  0  0  0  0  0
  1  2  1  0
  2  3  2  0
  3  4  1  0
  4  5  1  0
  5  6  1  0
  5  7  1  0
  5  8  1  0
  4  9  1  0
  9 10  2  0
 10 11  1  0
 11 12  1  0
 12 13  1  0
 13 14  1  0
 11 15  2  0
 15 16  1  0
 16 17  1  0
 17 18  2  0
 17 19  1  0
 19 20  1  0
 20 21  2  0
 21 22  1  0
 22 23  2  0
 23 24  1  0
 24 25  2  0
 24 26  1  0
 26 27  1  0
 27 28  1  0
 28 29  1  0
 29 30  1  0
 29 31  1  0
 27 32  1  0
 16 33  2  0
 33  2  1  0
 33  9  1  0
 14 12  1  0
 25 20  1  0
 32 23  1  0
M  END
>  <name>  (766) 
P125692

>  <alias>  (766) 
None

>  <smina_score_min>  (766) 
-9.472

>  <exports>  (766) 
['/opt/xchem-fragalysis-2/maxwin/BulkDock/OUTPUTS/openbind_xx01zvns2b_c2_elabs_1LOUTNY.sdf', '/opt/xchem-fragalysis-2/maxwin/BulkDock/OUTPUTS/openbind_xx01zvns2b_c2_elabs_1LSYIIV.sdf']

>  <tags>  (766) 
syndirella_placed,openbind_xx01zvns2b_c2_elabs,openbind_xx01zvns2b_c2_elabs_scored_6.2plus,syndirella_product,openbind_xx01zvns2b_c2_elabs_scored,openbind_xx01zvns2b_c2_elabs_scored_top80percent,BulkDock Fragalysis export

>  <subsites>  (766) 
1 - Z4590/B/203/1

>  <smiles>  (766) 
Cc1nn(C(C)(C)C)c2nc(C3CC3)cc(C(=O)Nc3ccc4c(c3)CN(CC(F)F)C4)c12

>  <HIPPO Pose ID>  (766) 
125692

>  <energy_score>  (766) 
-49.751125

>  <inchikey>  (766) 
FCFYRLDXZPTXEL-UHFFFAOYSA-N

>  <gnina_score_min>  (766) 
6.687

>  <gnina_score>  (766) 
6.615

>  <ref_mols>  (766) 
Z3559a

>  <HIPPO Compound ID>  (766) 
179661

>  <distance_score>  (766) 
0.455193

>  <rmsd(smina/fragmenstein)>  (766) 
0.676

>  <ref_pdb>  (766) 
Z3559a

>  <inspiration_score>  (766) 
None

$$$$
P125693
     RDKit          3D

 33 37  0  0  0  0  0  0  0  0999 V2000
   -8.4850    4.8291   -4.2982 C   0  0  0  0  0  0  0  0  0  0  0  0
   -9.5129    3.7582   -3.9908 C   0  0  0  0  0  0  0  0  0  0  0  0
  -10.2673    3.1773   -5.1940 C   0  0  0  0  0  0  0  0  0  0  0  0
   -9.4288    2.3718   -6.2089 C   0  0  0  0  0  0  0  0  0  0  0  0
   -9.4151    3.0404   -7.4985 N   0  0  0  0  0  0  0  0  0  0  0  0
   -8.5629    4.2293   -7.5292 C   0  0  0  0  0  0  0  0  0  0  0  0
   -8.2977    4.4232   -8.9777 C   0  0  0  0  0  0  0  0  0  0  0  0
   -7.8934    5.5696   -9.6208 C   0  0  0  0  0  0  0  0  0  0  0  0
   -7.7490    5.5078  -11.0002 C   0  0  0  0  0  0  0  0  0  0  0  0
   -7.9749    4.3113  -11.7102 C   0  0  0  0  0  0  0  0  0  0  0  0
   -7.7833    4.3122  -13.0928 N   0  0  0  0  0  0  0  0  0  0  0  0
   -7.3624    5.4510  -14.0456 C   0  0  0  0  0  0  0  0  0  0  0  0
   -7.1841    6.5860  -13.8366 O   0  0  0  0  0  0  0  0  0  0  0  0
   -7.0855    4.9924  -15.4179 C   0  0  0  0  0  0  0  0  0  0  0  0
   -8.0809    4.4324  -16.2272 C   0  0  0  0  0  0  0  0  0  0  0  0
   -7.8557    4.3153  -17.6070 C   0  0  0  0  0  0  0  0  0  0  0  0
   -8.8658    3.7900  -18.5958 C   0  0  0  0  0  0  0  0  0  0  0  0
   -9.4858    2.4439  -18.3724 C   0  0  0  0  0  0  0  0  0  0  0  0
  -10.3364    3.6885  -18.3390 C   0  0  0  0  0  0  0  0  0  0  0  0
   -6.7107    4.7305  -18.1896 N   0  0  0  0  0  0  0  0  0  0  0  0
   -5.7842    5.2462  -17.3776 C   0  0  0  0  0  0  0  0  0  0  0  0
   -5.8707    5.3745  -16.0070 C   0  0  0  0  0  0  0  0  0  0  0  0
   -4.6300    5.9460  -15.6264 C   0  0  0  0  0  0  0  0  0  0  0  0
   -4.1410    6.2754  -14.2640 C   0  0  0  0  0  0  0  0  0  0  0  0
   -3.8537    6.2091  -16.6868 N   0  0  0  0  0  0  0  0  0  0  0  0
   -4.6109    5.8528  -17.7544 N   0  0  0  0  0  0  0  0  0  0  0  0
   -4.2581    6.3258  -19.1057 C   0  0  0  0  0  0  0  0  0  0  0  0
   -2.9176    7.1056  -19.1017 C   0  0  0  0  0  0  0  0  0  0  0  0
   -5.3411    7.2968  -19.6178 C   0  0  0  0  0  0  0  0  0  0  0  0
   -4.0973    5.1679  -20.0978 C   0  0  0  0  0  0  0  0  0  0  0  0
   -8.3674    3.1489  -11.0339 C   0  0  0  0  0  0  0  0  0  0  0  0
   -8.5444    3.2281   -9.6597 C   0  0  0  0  0  0  0  0  0  0  0  0
   -9.0182    2.2071   -8.6578 C   0  0  0  0  0  0  0  0  0  0  0  0
  1  2  1  0
  2  3  1  0
  3  4  1  0
  4  5  1  0
  5  6  1  0
  6  7  1  0
  7  8  2  0
  8  9  1  0
  9 10  2  0
 10 11  1  0
 11 12  1  0
 12 13  2  0
 12 14  1  0
 14 15  2  0
 15 16  1  0
 16 17  1  0
 17 18  1  0
 18 19  1  0
 16 20  2  0
 20 21  1  0
 21 22  2  0
 22 23  1  0
 23 24  1  0
 23 25  2  0
 25 26  1  0
 26 27  1  0
 27 28  1  0
 27 29  1  0
 27 30  1  0
 10 31  1  0
 31 32  2  0
 32 33  1  0
 33  5  1  0
 32  7  1  0
 22 14  1  0
 19 17  1  0
 26 21  1  0
M  END
>  <name>  (767) 
P125693

>  <alias>  (767) 
None

>  <smina_score_min>  (767) 
-9.372

>  <exports>  (767) 
['/opt/xchem-fragalysis-2/maxwin/BulkDock/OUTPUTS/openbind_xx01zvns2b_c2_elabs_1LOUTNY.sdf', '/opt/xchem-fragalysis-2/maxwin/BulkDock/OUTPUTS/openbind_xx01zvns2b_c2_elabs_1LSYIIV.sdf']

>  <tags>  (767) 
syndirella_placed,openbind_xx01zvns2b_c2_elabs,openbind_xx01zvns2b_c2_elabs_scored_6.2plus,syndirella_product,openbind_xx01zvns2b_c2_elabs_scored,openbind_xx01zvns2b_c2_elabs_scored_top80percent,BulkDock Fragalysis export

>  <subsites>  (767) 
1 - Z4590/B/203/1

>  <smiles>  (767) 
CCCCN1Cc2ccc(NC(=O)c3cc(C4CC4)nc4c3c(C)nn4C(C)(C)C)cc2C1

>  <HIPPO Pose ID>  (767) 
125693

>  <energy_score>  (767) 
-25.674597

>  <inchikey>  (767) 
ISGNIEHKAVKEMH-UHFFFAOYSA-N

>  <gnina_score_min>  (767) 
6.793

>  <gnina_score>  (767) 
6.703

>  <ref_mols>  (767) 
Z3559a

>  <HIPPO Compound ID>  (767) 
179660

>  <distance_score>  (767) 
0.764209

>  <rmsd(smina/fragmenstein)>  (767) 
0.663

>  <ref_pdb>  (767) 
Z3559a

>  <inspiration_score>  (767) 
None

$$$$
P125694
     RDKit          3D

 33 37  0  0  0  0  0  0  0  0999 V2000
   -4.1146    6.2302  -14.2657 C   0  0  0  0  0  0  0  0  0  0  0  0
   -4.6116    5.8763  -15.6192 C   0  0  0  0  0  0  0  0  0  0  0  0
   -3.8093    6.0520  -16.6766 N   0  0  0  0  0  0  0  0  0  0  0  0
   -4.5632    5.6712  -17.7412 N   0  0  0  0  0  0  0  0  0  0  0  0
   -4.0588    5.9654  -19.0942 C   0  0  0  0  0  0  0  0  0  0  0  0
   -4.9091    5.3901  -20.2417 C   0  0  0  0  0  0  0  0  0  0  0  0
   -2.6207    5.4222  -19.2446 C   0  0  0  0  0  0  0  0  0  0  0  0
   -4.0280    7.4998  -19.2800 C   0  0  0  0  0  0  0  0  0  0  0  0
   -5.7826    5.1731  -17.3599 C   0  0  0  0  0  0  0  0  0  0  0  0
   -6.7300    4.6704  -18.1540 N   0  0  0  0  0  0  0  0  0  0  0  0
   -7.8961    4.3292  -17.5694 C   0  0  0  0  0  0  0  0  0  0  0  0
   -8.9189    3.8348  -18.5601 C   0  0  0  0  0  0  0  0  0  0  0  0
   -9.5093    2.4697  -18.3726 C   0  0  0  0  0  0  0  0  0  0  0  0
  -10.3827    3.6962  -18.2940 C   0  0  0  0  0  0  0  0  0  0  0  0
   -8.1225    4.4905  -16.1949 C   0  0  0  0  0  0  0  0  0  0  0  0
   -7.1078    5.0344  -15.3992 C   0  0  0  0  0  0  0  0  0  0  0  0
   -7.3463    5.5230  -14.0293 C   0  0  0  0  0  0  0  0  0  0  0  0
   -7.0874    6.6457  -13.8379 O   0  0  0  0  0  0  0  0  0  0  0  0
   -7.8084    4.4218  -13.0511 N   0  0  0  0  0  0  0  0  0  0  0  0
   -7.9529    4.4447  -11.6636 C   0  0  0  0  0  0  0  0  0  0  0  0
   -7.5431    5.6045  -10.9694 C   0  0  0  0  0  0  0  0  0  0  0  0
   -7.6169    5.6961   -9.5832 C   0  0  0  0  0  0  0  0  0  0  0  0
   -8.1394    4.6204   -8.9066 C   0  0  0  0  0  0  0  0  0  0  0  0
   -8.5722    3.4856   -9.5860 C   0  0  0  0  0  0  0  0  0  0  0  0
   -8.4716    3.3544  -10.9642 C   0  0  0  0  0  0  0  0  0  0  0  0
   -9.2402    2.6221   -8.6024 C   0  0  0  0  0  0  0  0  0  0  0  0
   -9.8616    1.6275   -8.9175 O   0  0  0  0  0  0  0  0  0  0  0  0
   -9.0936    3.2329   -7.3499 N   0  0  0  0  0  0  0  0  0  0  0  0
   -9.9153    2.9528   -6.1729 C   0  0  0  0  0  0  0  0  0  0  0  0
   -9.2754    3.4987   -4.8899 C   0  0  0  0  0  0  0  0  0  0  0  0
  -10.2292    1.4825   -6.0221 C   0  0  0  0  0  0  0  0  0  0  0  0
   -8.4058    4.4968   -7.4578 C   0  0  0  0  0  0  0  0  0  0  0  0
   -5.8751    5.3519  -15.9948 C   0  0  0  0  0  0  0  0  0  0  0  0
  1  2  1  0
  2  3  2  0
  3  4  1  0
  4  5  1  0
  5  6  1  0
  5  7  1  0
  5  8  1  0
  4  9  1  0
  9 10  2  0
 10 11  1  0
 11 12  1  0
 12 13  1  0
 13 14  1  0
 11 15  2  0
 15 16  1  0
 16 17  1  0
 17 18  2  0
 17 19  1  0
 19 20  1  0
 20 21  2  0
 21 22  1  0
 22 23  2  0
 23 24  1  0
 24 25  2  0
 24 26  1  0
 26 27  2  0
 26 28  1  0
 28 29  1  0
 29 30  1  0
 29 31  1  0
 28 32  1  0
 16 33  2  0
 33  2  1  0
 33  9  1  0
 14 12  1  0
 25 20  1  0
 32 23  1  0
M  END
>  <name>  (768) 
P125694

>  <alias>  (768) 
None

>  <smina_score_min>  (768) 
-9.413

>  <exports>  (768) 
['/opt/xchem-fragalysis-2/maxwin/BulkDock/OUTPUTS/openbind_xx01zvns2b_c2_elabs_1LOUTNY.sdf', '/opt/xchem-fragalysis-2/maxwin/BulkDock/OUTPUTS/openbind_xx01zvns2b_c2_elabs_1LSYIIV.sdf']

>  <tags>  (768) 
syndirella_placed,openbind_xx01zvns2b_c2_elabs,openbind_xx01zvns2b_c2_elabs_scored_6.2plus,syndirella_product,openbind_xx01zvns2b_c2_elabs_scored,openbind_xx01zvns2b_c2_elabs_scored_top80percent,BulkDock Fragalysis export

>  <subsites>  (768) 
1 - Z4590/B/203/1

>  <smiles>  (768) 
Cc1nn(C(C)(C)C)c2nc(C3CC3)cc(C(=O)Nc3ccc4c(c3)C(=O)N(C(C)C)C4)c12

>  <HIPPO Pose ID>  (768) 
125694

>  <energy_score>  (768) 
-47.549573

>  <inchikey>  (768) 
KJSXKWCIVCHPEY-UHFFFAOYSA-N

>  <gnina_score_min>  (768) 
6.484

>  <gnina_score>  (768) 
6.666

>  <ref_mols>  (768) 
Z3559a

>  <HIPPO Compound ID>  (768) 
179662

>  <distance_score>  (768) 
0.796424

>  <rmsd(smina/fragmenstein)>  (768) 
0.929

>  <ref_pdb>  (768) 
Z3559a

>  <inspiration_score>  (768) 
None

$$$$
P125695
     RDKit          3D

 33 38  0  0  0  0  0  0  0  0999 V2000
   -4.1609    6.3016  -14.1089 C   0  0  0  0  0  0  0  0  0  0  0  0
   -4.8112    5.8955  -15.3811 C   0  0  0  0  0  0  0  0  0  0  0  0
   -4.1357    6.0333  -16.5311 N   0  0  0  0  0  0  0  0  0  0  0  0
   -4.9834    5.5694  -17.4710 N   0  0  0  0  0  0  0  0  0  0  0  0
   -4.5461    5.5180  -18.8522 C   0  0  2  0  0  0  0  0  0  0  0  0
   -3.4461    6.5356  -19.2101 C   0  0  0  0  0  0  0  0  0  0  0  0
   -3.2009    6.3603  -20.6993 C   0  0  0  0  0  0  0  0  0  0  0  0
   -4.8209    6.1216  -21.3995 S   0  0  0  0  0  0  0  0  0  0  0  0
   -5.2855    7.4078  -21.8814 O   0  0  0  0  0  0  0  0  0  0  0  0
   -4.7840    4.9387  -22.2373 O   0  0  0  0  0  0  0  0  0  0  0  0
   -5.6551    5.7345  -19.8755 C   0  0  0  0  0  0  0  0  0  0  0  0
   -6.1653    5.1117  -16.9506 C   0  0  0  0  0  0  0  0  0  0  0  0
   -7.1884    4.5793  -17.6371 N   0  0  0  0  0  0  0  0  0  0  0  0
   -8.2859    4.2674  -16.9056 C   0  0  0  0  0  0  0  0  0  0  0  0
   -9.5201    3.7840  -17.6414 C   0  0  0  0  0  0  0  0  0  0  0  0
   -9.4204    2.6318  -18.6100 C   0  0  0  0  0  0  0  0  0  0  0  0
   -9.6836    4.0144  -19.1235 C   0  0  0  0  0  0  0  0  0  0  0  0
   -8.3411    4.4586  -15.5204 C   0  0  0  0  0  0  0  0  0  0  0  0
   -7.2492    5.0107  -14.8403 C   0  0  0  0  0  0  0  0  0  0  0  0
   -7.3431    5.4020  -13.4143 C   0  0  0  0  0  0  0  0  0  0  0  0
   -6.9514    6.4652  -13.1298 O   0  0  0  0  0  0  0  0  0  0  0  0
   -7.9518    4.2877  -12.5297 N   0  0  0  0  0  0  0  0  0  0  0  0
   -8.1123    4.2156  -11.1443 C   0  0  0  0  0  0  0  0  0  0  0  0
   -7.7168    5.2965  -10.3295 C   0  0  0  0  0  0  0  0  0  0  0  0
   -7.8383    5.2459   -8.9355 C   0  0  0  0  0  0  0  0  0  0  0  0
   -8.3798    4.1081   -8.3738 C   0  0  0  0  0  0  0  0  0  0  0  0
   -8.7980    3.0557   -9.1886 C   0  0  0  0  0  0  0  0  0  0  0  0
   -8.6630    3.0695  -10.5679 C   0  0  0  0  0  0  0  0  0  0  0  0
   -9.4004    2.0414   -8.3145 C   0  0  0  0  0  0  0  0  0  0  0  0
   -9.9448    1.0178   -8.6673 O   0  0  0  0  0  0  0  0  0  0  0  0
   -9.2855    2.5024   -7.0201 N   0  0  0  0  0  0  0  0  0  0  0  0
   -8.6312    3.7779   -6.9420 C   0  0  0  0  0  0  0  0  0  0  0  0
   -6.1067    5.3452  -15.5871 C   0  0  0  0  0  0  0  0  0  0  0  0
  1  2  1  0
  2  3  2  0
  3  4  1  0
  5  4  1  1
  5  6  1  0
  6  7  1  0
  7  8  1  0
  8  9  2  0
  8 10  2  0
  8 11  1  0
  4 12  1  0
 12 13  2  0
 13 14  1  0
 14 15  1  0
 15 16  1  0
 16 17  1  0
 14 18  2  0
 18 19  1  0
 19 20  1  0
 20 21  2  0
 20 22  1  0
 22 23  1  0
 23 24  2  0
 24 25  1  0
 25 26  2  0
 26 27  1  0
 27 28  2  0
 27 29  1  0
 29 30  2  0
 29 31  1  0
 31 32  1  0
 19 33  2  0
 33  2  1  0
 11  5  1  0
 33 12  1  0
 17 15  1  0
 28 23  1  0
 32 26  1  0
M  END
>  <name>  (769) 
P125695

>  <alias>  (769) 
None

>  <smina_score_min>  (769) 
-9.709

>  <exports>  (769) 
['/opt/xchem-fragalysis-2/maxwin/BulkDock/OUTPUTS/openbind_xx01zvns2b_c2_elabs_1LOUTNY.sdf', '/opt/xchem-fragalysis-2/maxwin/BulkDock/OUTPUTS/openbind_xx01zvns2b_c2_elabs_1LSYIIV.sdf']

>  <tags>  (769) 
syndirella_placed,openbind_xx01zvns2b_c2_elabs,openbind_xx01zvns2b_c2_elabs_scored_6.2plus,syndirella_product,openbind_xx01zvns2b_c2_elabs_scored,openbind_xx01zvns2b_c2_elabs_scored_top80percent,BulkDock Fragalysis export

>  <subsites>  (769) 
1 - Z4590/B/203/1

>  <smiles>  (769) 
Cc1nn([C@@H]2CCS(=O)(=O)C2)c2nc(C3CC3)cc(C(=O)Nc3ccc4c(c3)C(=O)NC4)c12

>  <HIPPO Pose ID>  (769) 
125695

>  <energy_score>  (769) 
-34.242655

>  <inchikey>  (769) 
KVEULMPWYBHOSX-MRXNPFEDSA-N

>  <gnina_score_min>  (769) 
6.413

>  <gnina_score>  (769) 
6.533

>  <ref_mols>  (769) 
Z3559a

>  <HIPPO Compound ID>  (769) 
179619

>  <distance_score>  (769) 
0.376594

>  <rmsd(smina/fragmenstein)>  (769) 
0.933

>  <ref_pdb>  (769) 
Z3559a

>  <inspiration_score>  (769) 
None

$$$$
P125702
     RDKit          3D

 33 38  0  0  0  0  0  0  0  0999 V2000
   -4.0879    6.4108  -14.3395 C   0  0  0  0  0  0  0  0  0  0  0  0
   -4.7602    5.9330  -15.5747 C   0  0  0  0  0  0  0  0  0  0  0  0
   -4.1162    6.0224  -16.7517 N   0  0  0  0  0  0  0  0  0  0  0  0
   -4.9816    5.4873  -17.6326 N   0  0  0  0  0  0  0  0  0  0  0  0
   -4.6551    5.3820  -19.0350 C   0  0  1  0  0  0  0  0  0  0  0  0
   -5.2349    6.5227  -19.8785 C   0  0  0  0  0  0  0  0  0  0  0  0
   -4.7690    6.2391  -21.3019 C   0  0  0  0  0  0  0  0  0  0  0  0
   -3.1356    5.5302  -21.1329 S   0  0  0  0  0  0  0  0  0  0  0  0
   -3.1540    4.2022  -21.7161 O   0  0  0  0  0  0  0  0  0  0  0  0
   -2.1619    6.5313  -21.5128 O   0  0  0  0  0  0  0  0  0  0  0  0
   -3.1614    5.3719  -19.3582 C   0  0  0  0  0  0  0  0  0  0  0  0
   -6.1577    5.0840  -17.0660 C   0  0  0  0  0  0  0  0  0  0  0  0
   -7.2010    4.5491  -17.7162 N   0  0  0  0  0  0  0  0  0  0  0  0
   -8.2809    4.2654  -16.9513 C   0  0  0  0  0  0  0  0  0  0  0  0
   -9.5330    3.7739  -17.6463 C   0  0  0  0  0  0  0  0  0  0  0  0
   -9.7394    4.0035  -19.1231 C   0  0  0  0  0  0  0  0  0  0  0  0
   -9.4545    2.6220  -18.6173 C   0  0  0  0  0  0  0  0  0  0  0  0
   -8.2955    4.4878  -15.5702 C   0  0  0  0  0  0  0  0  0  0  0  0
   -7.1814    5.0526  -14.9336 C   0  0  0  0  0  0  0  0  0  0  0  0
   -7.2386    5.4447  -13.5078 C   0  0  0  0  0  0  0  0  0  0  0  0
   -6.8857    6.5207  -13.2235 O   0  0  0  0  0  0  0  0  0  0  0  0
   -7.7331    4.2831  -12.6142 N   0  0  0  0  0  0  0  0  0  0  0  0
   -7.9780    4.2368  -11.2416 C   0  0  0  0  0  0  0  0  0  0  0  0
   -7.7569    5.3679  -10.4317 C   0  0  0  0  0  0  0  0  0  0  0  0
   -7.9404    5.3079   -9.0468 C   0  0  0  0  0  0  0  0  0  0  0  0
   -8.3526    4.1045   -8.5128 C   0  0  0  0  0  0  0  0  0  0  0  0
   -8.5963    2.9807   -9.2980 C   0  0  0  0  0  0  0  0  0  0  0  0
   -8.4125    3.0317  -10.6721 C   0  0  0  0  0  0  0  0  0  0  0  0
   -8.9977    1.8391   -8.4242 C   0  0  0  0  0  0  0  0  0  0  0  0
   -9.0632    2.4466   -7.1110 N   0  0  0  0  0  0  0  0  0  0  0  0
   -8.5864    3.7397   -7.1100 C   0  0  0  0  0  0  0  0  0  0  0  0
   -8.3683    4.4507   -6.1472 O   0  0  0  0  0  0  0  0  0  0  0  0
   -6.0595    5.3670  -15.7165 C   0  0  0  0  0  0  0  0  0  0  0  0
  1  2  1  0
  2  3  2  0
  3  4  1  0
  5  4  1  1
  5  6  1  0
  6  7  1  0
  7  8  1  0
  8  9  2  0
  8 10  2  0
  8 11  1  0
  4 12  1  0
 12 13  2  0
 13 14  1  0
 14 15  1  0
 15 16  1  0
 16 17  1  0
 14 18  2  0
 18 19  1  0
 19 20  1  0
 20 21  2  0
 20 22  1  0
 22 23  1  0
 23 24  2  0
 24 25  1  0
 25 26  2  0
 26 27  1  0
 27 28  2  0
 27 29  1  0
 29 30  1  0
 30 31  1  0
 31 32  2  0
 19 33  2  0
 33  2  1  0
 11  5  1  0
 33 12  1  0
 17 15  1  0
 28 23  1  0
 31 26  1  0
M  END
>  <name>  (770) 
P125702

>  <alias>  (770) 
None

>  <smina_score_min>  (770) 
-10.045

>  <exports>  (770) 
['/opt/xchem-fragalysis-2/maxwin/BulkDock/OUTPUTS/openbind_xx01zvns2b_c2_elabs_1LOUTNY.sdf', '/opt/xchem-fragalysis-2/maxwin/BulkDock/OUTPUTS/openbind_xx01zvns2b_c2_elabs_1LSYIIV.sdf']

>  <tags>  (770) 
syndirella_placed,openbind_xx01zvns2b_c2_elabs,openbind_xx01zvns2b_c2_elabs_scored_6.2plus,syndirella_product,openbind_xx01zvns2b_c2_elabs_scored,openbind_xx01zvns2b_c2_elabs_scored_top80percent,BulkDock Fragalysis export

>  <subsites>  (770) 
1 - Z4590/B/203/1

>  <smiles>  (770) 
Cc1nn([C@H]2CCS(=O)(=O)C2)c2nc(C3CC3)cc(C(=O)Nc3ccc4c(c3)CNC4=O)c12

>  <HIPPO Pose ID>  (770) 
125702

>  <energy_score>  (770) 
-29.323114

>  <inchikey>  (770) 
YCWPVUAXQWMFGZ-INIZCTEOSA-N

>  <gnina_score_min>  (770) 
6.601

>  <gnina_score>  (770) 
6.614

>  <ref_mols>  (770) 
Z3559a

>  <HIPPO Compound ID>  (770) 
179618

>  <distance_score>  (770) 
0.349146

>  <rmsd(smina/fragmenstein)>  (770) 
0.678

>  <ref_pdb>  (770) 
Z3559a

>  <inspiration_score>  (770) 
None

$$$$
P125704
     RDKit          3D

 33 38  0  0  0  0  0  0  0  0999 V2000
   -3.6454    6.2456  -14.5766 C   0  0  0  0  0  0  0  0  0  0  0  0
   -4.2569    5.8389  -15.8675 C   0  0  0  0  0  0  0  0  0  0  0  0
   -3.5401    5.9457  -16.9991 N   0  0  0  0  0  0  0  0  0  0  0  0
   -4.3897    5.5190  -17.9549 N   0  0  0  0  0  0  0  0  0  0  0  0
   -4.0110    5.5781  -19.3422 C   0  0  0  0  0  0  0  0  0  0  0  0
   -5.5908    5.1053  -17.4706 C   0  0  0  0  0  0  0  0  0  0  0  0
   -6.5991    4.6250  -18.1969 N   0  0  0  0  0  0  0  0  0  0  0  0
   -7.7479    4.3563  -17.5362 C   0  0  0  0  0  0  0  0  0  0  0  0
   -8.8116    3.8963  -18.5218 C   0  0  0  0  0  0  0  0  0  0  0  0
  -10.2883    3.7600  -18.3510 C   0  0  0  0  0  0  0  0  0  0  0  0
   -9.4180    2.5310  -18.3648 C   0  0  0  0  0  0  0  0  0  0  0  0
   -7.8451    4.5620  -16.1427 C   0  0  0  0  0  0  0  0  0  0  0  0
   -9.3130    4.3609  -15.2986 Cl  0  0  0  0  0  0  0  0  0  0  0  0
   -6.7413    5.0445  -15.4117 C   0  0  0  0  0  0  0  0  0  0  0  0
   -6.8650    5.5901  -14.0451 C   0  0  0  0  0  0  0  0  0  0  0  0
   -6.5968    6.7267  -13.9531 O   0  0  0  0  0  0  0  0  0  0  0  0
   -7.3371    4.5754  -12.9651 N   0  0  0  0  0  0  0  0  0  0  0  0
   -7.6564    4.7674  -11.6169 C   0  0  0  0  0  0  0  0  0  0  0  0
   -7.5762    6.0884  -11.1440 C   0  0  0  0  0  0  0  0  0  0  0  0
   -7.8636    6.4063   -9.8345 C   0  0  0  0  0  0  0  0  0  0  0  0
   -8.2373    5.3797   -9.0024 C   0  0  0  0  0  0  0  0  0  0  0  0
   -8.3412    4.0498   -9.4210 C   0  0  0  0  0  0  0  0  0  0  0  0
   -8.0543    3.7261  -10.7514 C   0  0  0  0  0  0  0  0  0  0  0  0
   -8.7737    3.2059   -8.2365 C   0  0  0  0  0  0  0  0  0  0  0  0
   -9.0719    4.2306   -7.1888 N   0  0  0  0  0  0  0  0  0  0  0  0
   -8.8855    4.0246   -5.8253 C   0  0  0  0  0  0  0  0  0  0  0  0
  -10.0084    3.9548   -5.0056 C   0  0  0  0  0  0  0  0  0  0  0  0
   -9.8902    4.1300   -3.6253 C   0  0  0  0  0  0  0  0  0  0  0  0
   -8.6459    4.3170   -3.0318 C   0  0  0  0  0  0  0  0  0  0  0  0
   -7.5098    4.3406   -3.8273 C   0  0  0  0  0  0  0  0  0  0  0  0
   -7.6366    4.1923   -5.2102 C   0  0  0  0  0  0  0  0  0  0  0  0
   -8.5406    5.5408   -7.5667 C   0  0  0  0  0  0  0  0  0  0  0  0
   -5.5607    5.3227  -16.1118 C   0  0  0  0  0  0  0  0  0  0  0  0
  1  2  1  0
  2  3  2  0
  3  4  1  0
  4  5  1  0
  4  6  1  0
  6  7  2  0
  7  8  1  0
  8  9  1  0
  9 10  1  0
 10 11  1  0
  8 12  2  0
 12 13  1  0
 12 14  1  0
 14 15  1  0
 15 16  2  0
 15 17  1  0
 17 18  1  0
 18 19  2  0
 19 20  1  0
 20 21  2  0
 21 22  1  0
 22 23  2  0
 22 24  1  0
 24 25  1  0
 25 26  1  0
 26 27  2  0
 27 28  1  0
 28 29  2  0
 29 30  1  0
 30 31  2  0
 25 32  1  0
 14 33  2  0
 33  2  1  0
 33  6  1  0
 11  9  1  0
 23 18  1  0
 31 26  1  0
 32 21  1  0
M  END
>  <name>  (771) 
P125704

>  <alias>  (771) 
None

>  <smina_score_min>  (771) 
-8.837

>  <exports>  (771) 
['/opt/xchem-fragalysis-2/maxwin/BulkDock/OUTPUTS/openbind_xx01zvns2b_c2_elabs_1LOUTNY.sdf', '/opt/xchem-fragalysis-2/maxwin/BulkDock/OUTPUTS/openbind_xx01zvns2b_c2_elabs_1LSYIIV.sdf']

>  <tags>  (771) 
syndirella_placed,openbind_xx01zvns2b_c2_elabs,openbind_xx01zvns2b_c2_elabs_scored_6.2plus,syndirella_product,openbind_xx01zvns2b_c2_elabs_scored,openbind_xx01zvns2b_c2_elabs_scored_top80percent,BulkDock Fragalysis export

>  <subsites>  (771) 
1 - Z4590/B/203/1

>  <smiles>  (771) 
Cc1nn(C)c2nc(C3CC3)c(Cl)c(C(=O)Nc3ccc4c(c3)CN(c3ccccc3)C4)c12

>  <HIPPO Pose ID>  (771) 
125704

>  <energy_score>  (771) 
-2.48254

>  <inchikey>  (771) 
OHFIHXSOVAFMRP-UHFFFAOYSA-N

>  <gnina_score_min>  (771) 
6.585

>  <gnina_score>  (771) 
6.675

>  <ref_mols>  (771) 
Z3559a

>  <HIPPO Compound ID>  (771) 
179710

>  <distance_score>  (771) 
1.140967

>  <rmsd(smina/fragmenstein)>  (771) 
0.467

>  <ref_pdb>  (771) 
Z3559a

>  <inspiration_score>  (771) 
None

$$$$
P125705
     RDKit          3D

 33 38  0  0  0  0  0  0  0  0999 V2000
   -4.6625    6.7454  -21.4962 C   0  0  0  0  0  0  0  0  0  0  0  0
   -5.0258    6.7352  -20.0207 C   0  0  0  0  0  0  0  0  0  0  0  0
   -4.6828    5.3978  -19.3715 C   0  0  0  0  0  0  0  0  0  0  0  0
   -5.0581    5.3621  -17.9732 N   0  0  0  0  0  0  0  0  0  0  0  0
   -4.2624    5.9398  -17.0420 N   0  0  0  0  0  0  0  0  0  0  0  0
   -4.9835    5.8242  -15.9194 C   0  0  0  0  0  0  0  0  0  0  0  0
   -6.2136    5.1562  -16.1215 C   0  0  0  0  0  0  0  0  0  0  0  0
   -7.3574    4.8096  -15.3842 C   0  0  0  0  0  0  0  0  0  0  0  0
   -7.4613    5.3702  -14.0348 C   0  0  0  0  0  0  0  0  0  0  0  0
   -7.1656    6.4995  -13.9565 O   0  0  0  0  0  0  0  0  0  0  0  0
   -7.8439    4.3532  -12.9300 N   0  0  0  0  0  0  0  0  0  0  0  0
   -7.8495    4.4841  -11.5423 C   0  0  0  0  0  0  0  0  0  0  0  0
   -7.2227    5.6522  -11.0638 C   0  0  0  0  0  0  0  0  0  0  0  0
   -7.1549    5.9417   -9.7247 C   0  0  0  0  0  0  0  0  0  0  0  0
   -7.7581    5.0531   -8.8758 C   0  0  0  0  0  0  0  0  0  0  0  0
   -8.3879    3.8703   -9.2914 C   0  0  0  0  0  0  0  0  0  0  0  0
   -8.4123    3.5515  -10.6500 C   0  0  0  0  0  0  0  0  0  0  0  0
   -8.9999    3.2244   -8.0546 C   0  0  0  0  0  0  0  0  0  0  0  0
   -9.0516    4.4061   -7.1292 N   0  0  0  0  0  0  0  0  0  0  0  0
   -9.2910    4.4674   -5.7693 C   0  0  0  0  0  0  0  0  0  0  0  0
   -9.5911    5.7182   -5.1812 C   0  0  0  0  0  0  0  0  0  0  0  0
   -9.5741    5.9191   -3.8016 C   0  0  0  0  0  0  0  0  0  0  0  0
   -9.3125    4.8481   -2.9681 C   0  0  0  0  0  0  0  0  0  0  0  0
   -9.0868    3.5972   -3.5322 C   0  0  0  0  0  0  0  0  0  0  0  0
   -9.0995    3.4004   -4.9188 C   0  0  0  0  0  0  0  0  0  0  0  0
   -7.9063    5.2660   -7.4256 C   0  0  0  0  0  0  0  0  0  0  0  0
   -8.4049    4.1602  -16.0336 C   0  0  0  0  0  0  0  0  0  0  0  0
   -8.2821    3.8914  -17.4010 C   0  0  0  0  0  0  0  0  0  0  0  0
   -9.4102    3.2833  -18.1911 C   0  0  0  0  0  0  0  0  0  0  0  0
  -10.7676    3.9256  -18.2863 C   0  0  0  0  0  0  0  0  0  0  0  0
   -9.8203    4.0538  -19.4272 C   0  0  0  0  0  0  0  0  0  0  0  0
   -7.1844    4.2134  -18.1339 N   0  0  0  0  0  0  0  0  0  0  0  0
   -6.2163    4.8468  -17.4621 C   0  0  0  0  0  0  0  0  0  0  0  0
  1  2  1  0
  2  3  1  0
  3  4  1  0
  4  5  1  0
  5  6  2  0
  6  7  1  0
  7  8  2  0
  8  9  1  0
  9 10  2  0
  9 11  1  0
 11 12  1  0
 12 13  2  0
 13 14  1  0
 14 15  2  0
 15 16  1  0
 16 17  2  0
 16 18  1  0
 18 19  1  0
 19 20  1  0
 20 21  2  0
 21 22  1  0
 22 23  2  0
 23 24  1  0
 24 25  2  0
 19 26  1  0
  8 27  1  0
 27 28  2  0
 28 29  1  0
 29 30  1  0
 30 31  1  0
 28 32  1  0
 32 33  2  0
 33  4  1  0
 33  7  1  0
 17 12  1  0
 25 20  1  0
 31 29  1  0
 26 15  1  0
M  END
>  <name>  (772) 
P125705

>  <alias>  (772) 
None

>  <smina_score_min>  (772) 
-8.97

>  <exports>  (772) 
['/opt/xchem-fragalysis-2/maxwin/BulkDock/OUTPUTS/openbind_xx01zvns2b_c2_elabs_1LOUTNY.sdf', '/opt/xchem-fragalysis-2/maxwin/BulkDock/OUTPUTS/openbind_xx01zvns2b_c2_elabs_1LSYIIV.sdf']

>  <tags>  (772) 
syndirella_placed,openbind_xx01zvns2b_c2_elabs,openbind_xx01zvns2b_c2_elabs_scored_6.2plus,syndirella_product,openbind_xx01zvns2b_c2_elabs_scored,openbind_xx01zvns2b_c2_elabs_scored_top80percent,BulkDock Fragalysis export

>  <subsites>  (772) 
1 - Z4590/B/203/1

>  <smiles>  (772) 
CCCn1ncc2c(C(=O)Nc3ccc4c(c3)CN(c3ccccc3)C4)cc(C3CC3)nc21

>  <HIPPO Pose ID>  (772) 
125705

>  <energy_score>  (772) 
-45.206151

>  <inchikey>  (772) 
HDBPMVBCFZNBNS-UHFFFAOYSA-N

>  <gnina_score_min>  (772) 
6.508

>  <gnina_score>  (772) 
6.439

>  <ref_mols>  (772) 
Z3559a

>  <HIPPO Compound ID>  (772) 
179665

>  <distance_score>  (772) 
1.01599

>  <rmsd(smina/fragmenstein)>  (772) 
0.695

>  <ref_pdb>  (772) 
Z3559a

>  <inspiration_score>  (772) 
None

$$$$
P125708
     RDKit          3D

 34 38  0  0  0  0  0  0  0  0999 V2000
   -4.0986    6.5389  -14.5570 C   0  0  0  0  0  0  0  0  0  0  0  0
   -4.7974    6.0541  -15.7742 C   0  0  0  0  0  0  0  0  0  0  0  0
   -4.2508    6.2788  -16.9800 N   0  0  0  0  0  0  0  0  0  0  0  0
   -5.0943    5.6519  -17.8441 N   0  0  0  0  0  0  0  0  0  0  0  0
   -4.9069    5.7921  -19.2798 C   0  0  0  0  0  0  0  0  0  0  0  0
   -3.5706    5.2861  -19.8242 C   0  0  0  0  0  0  0  0  0  0  0  0
   -3.5170    4.7082  -20.8399 O   0  0  0  0  0  0  0  0  0  0  0  0
   -2.4360    5.7654  -18.8787 N   0  0  0  0  0  0  0  0  0  0  0  0
   -1.0119    5.5496  -18.9408 C   0  0  0  0  0  0  0  0  0  0  0  0
   -0.4138    6.2442  -20.1584 C   0  0  0  0  0  0  0  0  0  0  0  0
   -0.3414    6.0228  -17.6569 C   0  0  0  0  0  0  0  0  0  0  0  0
   -6.1988    5.1368  -17.2261 C   0  0  0  0  0  0  0  0  0  0  0  0
   -7.2469    4.5653  -17.8315 N   0  0  0  0  0  0  0  0  0  0  0  0
   -8.2777    4.2267  -17.0259 C   0  0  0  0  0  0  0  0  0  0  0  0
   -9.5469    3.7301  -17.6793 C   0  0  0  0  0  0  0  0  0  0  0  0
   -9.7909    3.9400  -19.1532 C   0  0  0  0  0  0  0  0  0  0  0  0
   -9.4939    2.5650  -18.6349 C   0  0  0  0  0  0  0  0  0  0  0  0
   -8.2363    4.4146  -15.6416 C   0  0  0  0  0  0  0  0  0  0  0  0
   -7.1164    5.0116  -15.0483 C   0  0  0  0  0  0  0  0  0  0  0  0
   -7.1505    5.4286  -13.6308 C   0  0  0  0  0  0  0  0  0  0  0  0
   -6.8724    6.5339  -13.3789 O   0  0  0  0  0  0  0  0  0  0  0  0
   -7.5791    4.2686  -12.7060 N   0  0  0  0  0  0  0  0  0  0  0  0
   -7.8382    4.2509  -11.3376 C   0  0  0  0  0  0  0  0  0  0  0  0
   -7.6790    5.4167  -10.5628 C   0  0  0  0  0  0  0  0  0  0  0  0
   -7.9509    5.4116   -9.1934 C   0  0  0  0  0  0  0  0  0  0  0  0
   -8.3847    4.2254   -8.6400 C   0  0  0  0  0  0  0  0  0  0  0  0
   -8.5554    3.0640   -9.3903 C   0  0  0  0  0  0  0  0  0  0  0  0
   -8.2745    3.0580  -10.7472 C   0  0  0  0  0  0  0  0  0  0  0  0
   -9.0880    1.9751   -8.5200 C   0  0  0  0  0  0  0  0  0  0  0  0
   -9.2339    2.6449   -7.2369 N   0  0  0  0  0  0  0  0  0  0  0  0
   -9.9738    2.0522   -6.1552 C   0  0  0  0  0  0  0  0  0  0  0  0
   -8.8310    3.9631   -7.2671 C   0  0  0  0  0  0  0  0  0  0  0  0
   -8.8830    4.8021   -6.3860 O   0  0  0  0  0  0  0  0  0  0  0  0
   -6.0519    5.3956  -15.8753 C   0  0  0  0  0  0  0  0  0  0  0  0
  1  2  1  0
  2  3  2  0
  3  4  1  0
  4  5  1  0
  5  6  1  0
  6  7  2  0
  6  8  1  0
  8  9  1  0
  9 10  1  0
  9 11  1  0
  4 12  1  0
 12 13  2  0
 13 14  1  0
 14 15  1  0
 15 16  1  0
 16 17  1  0
 14 18  2  0
 18 19  1  0
 19 20  1  0
 20 21  2  0
 20 22  1  0
 22 23  1  0
 23 24  2  0
 24 25  1  0
 25 26  2  0
 26 27  1  0
 27 28  2  0
 27 29  1  0
 29 30  1  0
 30 31  1  0
 30 32  1  0
 32 33  2  0
 19 34  2  0
 34  2  1  0
 34 12  1  0
 17 15  1  0
 28 23  1  0
 32 26  1  0
M  END
>  <name>  (773) 
P125708

>  <alias>  (773) 
None

>  <smina_score_min>  (773) 
-9.008

>  <exports>  (773) 
['/opt/xchem-fragalysis-2/maxwin/BulkDock/OUTPUTS/openbind_xx01zvns2b_c2_elabs_1LOUTNY.sdf', '/opt/xchem-fragalysis-2/maxwin/BulkDock/OUTPUTS/openbind_xx01zvns2b_c2_elabs_1LSYIIV.sdf']

>  <tags>  (773) 
syndirella_placed,openbind_xx01zvns2b_c2_elabs,openbind_xx01zvns2b_c2_elabs_scored_6.2plus,syndirella_product,openbind_xx01zvns2b_c2_elabs_scored,openbind_xx01zvns2b_c2_elabs_scored_top80percent,BulkDock Fragalysis export

>  <subsites>  (773) 
1 - Z4590/B/203/1

>  <smiles>  (773) 
Cc1nn(CC(=O)NC(C)C)c2nc(C3CC3)cc(C(=O)Nc3ccc4c(c3)CN(C)C4=O)c12

>  <HIPPO Pose ID>  (773) 
125708

>  <energy_score>  (773) 
-27.553963

>  <inchikey>  (773) 
FPSMQTKPWAYBNG-UHFFFAOYSA-N

>  <gnina_score_min>  (773) 
6.428

>  <gnina_score>  (773) 
6.557

>  <ref_mols>  (773) 
Z3559a

>  <HIPPO Compound ID>  (773) 
187829

>  <distance_score>  (773) 
0.413136

>  <rmsd(smina/fragmenstein)>  (773) 
1.058

>  <ref_pdb>  (773) 
Z3559a

>  <inspiration_score>  (773) 
None

$$$$
P125709
     RDKit          3D

 34 39  0  0  0  0  0  0  0  0999 V2000
   -3.6024    6.1166  -14.3112 C   0  0  0  0  0  0  0  0  0  0  0  0
   -4.3573    5.7597  -15.5402 C   0  0  0  0  0  0  0  0  0  0  0  0
   -3.7314    5.8233  -16.7144 N   0  0  0  0  0  0  0  0  0  0  0  0
   -4.6300    5.4086  -17.6434 N   0  0  0  0  0  0  0  0  0  0  0  0
   -4.2548    5.3422  -19.0172 C   0  0  0  0  0  0  0  0  0  0  0  0
   -5.2041    5.1517  -20.0305 C   0  0  0  0  0  0  0  0  0  0  0  0
   -4.8042    5.0504  -21.3700 C   0  0  0  0  0  0  0  0  0  0  0  0
   -3.4581    5.1283  -21.7155 C   0  0  0  0  0  0  0  0  0  0  0  0
   -2.5076    5.3213  -20.7189 C   0  0  0  0  0  0  0  0  0  0  0  0
   -2.9035    5.4377  -19.3851 C   0  0  0  0  0  0  0  0  0  0  0  0
   -1.9254    5.5983  -18.4825 F   0  0  0  0  0  0  0  0  0  0  0  0
   -5.8509    5.0938  -17.0419 C   0  0  0  0  0  0  0  0  0  0  0  0
   -6.9596    4.6092  -17.6402 N   0  0  0  0  0  0  0  0  0  0  0  0
   -8.0394    4.4045  -16.8485 C   0  0  0  0  0  0  0  0  0  0  0  0
   -9.3096    3.8802  -17.5335 C   0  0  0  0  0  0  0  0  0  0  0  0
   -9.5891    4.1695  -18.9891 C   0  0  0  0  0  0  0  0  0  0  0  0
   -9.2138    2.7825  -18.5712 C   0  0  0  0  0  0  0  0  0  0  0  0
   -7.9963    4.7038  -15.4738 C   0  0  0  0  0  0  0  0  0  0  0  0
   -9.4408    4.7553  -14.5509 Cl  0  0  0  0  0  0  0  0  0  0  0  0
   -6.8058    5.1067  -14.8516 C   0  0  0  0  0  0  0  0  0  0  0  0
   -6.7407    5.4282  -13.3941 C   0  0  0  0  0  0  0  0  0  0  0  0
   -6.2580    6.4468  -13.0829 O   0  0  0  0  0  0  0  0  0  0  0  0
   -7.3914    4.3159  -12.5264 N   0  0  0  0  0  0  0  0  0  0  0  0
   -7.6573    4.2740  -11.1570 C   0  0  0  0  0  0  0  0  0  0  0  0
   -7.2856    5.3343  -10.3115 C   0  0  0  0  0  0  0  0  0  0  0  0
   -7.5568    5.2971   -8.9366 C   0  0  0  0  0  0  0  0  0  0  0  0
   -8.2154    4.1939   -8.4293 C   0  0  0  0  0  0  0  0  0  0  0  0
   -8.6168    3.1659   -9.2811 C   0  0  0  0  0  0  0  0  0  0  0  0
   -8.3469    3.1709  -10.6393 C   0  0  0  0  0  0  0  0  0  0  0  0
   -9.3407    2.1797   -8.4680 C   0  0  0  0  0  0  0  0  0  0  0  0
   -9.8967    1.1799   -8.8681 O   0  0  0  0  0  0  0  0  0  0  0  0
   -9.3119    2.6324   -7.1656 N   0  0  0  0  0  0  0  0  0  0  0  0
   -8.6011    3.8726   -7.0252 C   0  0  0  0  0  0  0  0  0  0  0  0
   -5.6977    5.3344  -15.6797 C   0  0  0  0  0  0  0  0  0  0  0  0
  1  2  1  0
  2  3  2  0
  3  4  1  0
  4  5  1  0
  5  6  2  0
  6  7  1  0
  7  8  2  0
  8  9  1  0
  9 10  2  0
 10 11  1  0
  4 12  1  0
 12 13  2  0
 13 14  1  0
 14 15  1  0
 15 16  1  0
 16 17  1  0
 14 18  2  0
 18 19  1  0
 18 20  1  0
 20 21  1  0
 21 22  2  0
 21 23  1  0
 23 24  1  0
 24 25  2  0
 25 26  1  0
 26 27  2  0
 27 28  1  0
 28 29  2  0
 28 30  1  0
 30 31  2  0
 30 32  1  0
 32 33  1  0
 20 34  2  0
 34  2  1  0
 10  5  1  0
 34 12  1  0
 17 15  1  0
 29 24  1  0
 33 27  1  0
M  END
>  <name>  (774) 
P125709

>  <alias>  (774) 
None

>  <smina_score_min>  (774) 
-8.815

>  <exports>  (774) 
['/opt/xchem-fragalysis-2/maxwin/BulkDock/OUTPUTS/openbind_xx01zvns2b_c2_elabs_1LOUTNY.sdf', '/opt/xchem-fragalysis-2/maxwin/BulkDock/OUTPUTS/openbind_xx01zvns2b_c2_elabs_1LSYIIV.sdf']

>  <tags>  (774) 
syndirella_placed,openbind_xx01zvns2b_c2_elabs,openbind_xx01zvns2b_c2_elabs_scored_6.2plus,syndirella_product,openbind_xx01zvns2b_c2_elabs_scored,openbind_xx01zvns2b_c2_elabs_scored_top80percent,BulkDock Fragalysis export

>  <subsites>  (774) 
1 - Z4590/B/203/1

>  <smiles>  (774) 
Cc1nn(-c2ccccc2F)c2nc(C3CC3)c(Cl)c(C(=O)Nc3ccc4c(c3)C(=O)NC4)c12

>  <HIPPO Pose ID>  (774) 
125709

>  <energy_score>  (774) 
-59.533745

>  <inchikey>  (774) 
NXPYYFKVJFJFAY-UHFFFAOYSA-N

>  <gnina_score_min>  (774) 
6.688

>  <gnina_score>  (774) 
6.847

>  <ref_mols>  (774) 
Z3559a

>  <HIPPO Compound ID>  (774) 
187830

>  <distance_score>  (774) 
0.589665

>  <rmsd(smina/fragmenstein)>  (774) 
0.872

>  <ref_pdb>  (774) 
Z3559a

>  <inspiration_score>  (774) 
None

$$$$
P125710
     RDKit          3D

 34 38  0  0  0  0  0  0  0  0999 V2000
   -4.3211    6.3060  -13.8874 C   0  0  0  0  0  0  0  0  0  0  0  0
   -4.7713    5.9538  -15.2580 C   0  0  0  0  0  0  0  0  0  0  0  0
   -3.9343    6.1469  -16.2922 N   0  0  0  0  0  0  0  0  0  0  0  0
   -4.6716    5.7859  -17.3637 N   0  0  0  0  0  0  0  0  0  0  0  0
   -4.1344    5.8958  -18.7029 C   0  0  0  0  0  0  0  0  0  0  0  0
   -4.8707    6.9293  -19.5608 C   0  0  0  0  0  0  0  0  0  0  0  0
   -5.5517    7.7830  -19.1373 O   0  0  0  0  0  0  0  0  0  0  0  0
   -4.4785    6.5842  -21.0349 N   0  0  0  0  0  0  0  0  0  0  0  0
   -4.7689    7.2767  -22.2684 C   0  0  0  0  0  0  0  0  0  0  0  0
   -3.8001    8.4369  -22.4631 C   0  0  0  0  0  0  0  0  0  0  0  0
   -4.7248    6.3149  -23.4480 C   0  0  0  0  0  0  0  0  0  0  0  0
   -5.8760    5.2422  -17.0328 C   0  0  0  0  0  0  0  0  0  0  0  0
   -6.7528    4.7176  -17.8885 N   0  0  0  0  0  0  0  0  0  0  0  0
   -7.9408    4.3544  -17.3606 C   0  0  0  0  0  0  0  0  0  0  0  0
   -8.9100    3.8964  -18.4242 C   0  0  0  0  0  0  0  0  0  0  0  0
   -9.4793    2.5114  -18.3585 C   0  0  0  0  0  0  0  0  0  0  0  0
  -10.3805    3.7148  -18.2435 C   0  0  0  0  0  0  0  0  0  0  0  0
   -8.2268    4.4801  -15.9855 C   0  0  0  0  0  0  0  0  0  0  0  0
   -7.2602    5.0241  -15.1197 C   0  0  0  0  0  0  0  0  0  0  0  0
   -7.5339    5.4219  -13.7149 C   0  0  0  0  0  0  0  0  0  0  0  0
   -7.2995    6.5357  -13.4498 O   0  0  0  0  0  0  0  0  0  0  0  0
   -7.9921    4.2511  -12.8122 N   0  0  0  0  0  0  0  0  0  0  0  0
   -8.1605    4.1853  -11.4209 C   0  0  0  0  0  0  0  0  0  0  0  0
   -7.7722    5.2885  -10.6230 C   0  0  0  0  0  0  0  0  0  0  0  0
   -7.8218    5.2411   -9.2238 C   0  0  0  0  0  0  0  0  0  0  0  0
   -8.2984    4.0834   -8.6510 C   0  0  0  0  0  0  0  0  0  0  0  0
   -8.7370    3.0199   -9.4206 C   0  0  0  0  0  0  0  0  0  0  0  0
   -8.6574    3.0281  -10.8092 C   0  0  0  0  0  0  0  0  0  0  0  0
   -9.2881    2.0338   -8.4865 C   0  0  0  0  0  0  0  0  0  0  0  0
   -9.9273    1.0516   -8.7965 O   0  0  0  0  0  0  0  0  0  0  0  0
   -9.0398    2.4944   -7.2290 N   0  0  0  0  0  0  0  0  0  0  0  0
   -8.4700    3.7268   -7.2409 C   0  0  0  0  0  0  0  0  0  0  0  0
   -8.1548    4.4287   -6.2980 O   0  0  0  0  0  0  0  0  0  0  0  0
   -6.0192    5.3995  -15.6708 C   0  0  0  0  0  0  0  0  0  0  0  0
  1  2  1  0
  2  3  2  0
  3  4  1  0
  4  5  1  0
  5  6  1  0
  6  7  2  0
  6  8  1  0
  8  9  1  0
  9 10  1  0
  9 11  1  0
  4 12  1  0
 12 13  2  0
 13 14  1  0
 14 15  1  0
 15 16  1  0
 16 17  1  0
 14 18  2  0
 18 19  1  0
 19 20  1  0
 20 21  2  0
 20 22  1  0
 22 23  1  0
 23 24  2  0
 24 25  1  0
 25 26  2  0
 26 27  1  0
 27 28  2  0
 27 29  1  0
 29 30  2  0
 29 31  1  0
 31 32  1  0
 32 33  2  0
 19 34  2  0
 34  2  1  0
 34 12  1  0
 17 15  1  0
 28 23  1  0
 32 26  1  0
M  END
>  <name>  (775) 
P125710

>  <alias>  (775) 
None

>  <smina_score_min>  (775) 
-9.505

>  <exports>  (775) 
['/opt/xchem-fragalysis-2/maxwin/BulkDock/OUTPUTS/openbind_xx01zvns2b_c2_elabs_1LOUTNY.sdf', '/opt/xchem-fragalysis-2/maxwin/BulkDock/OUTPUTS/openbind_xx01zvns2b_c2_elabs_1LSYIIV.sdf']

>  <tags>  (775) 
syndirella_placed,openbind_xx01zvns2b_c2_elabs,openbind_xx01zvns2b_c2_elabs_scored_6.2plus,syndirella_product,openbind_xx01zvns2b_c2_elabs_scored,openbind_xx01zvns2b_c2_elabs_scored_top80percent,BulkDock Fragalysis export

>  <subsites>  (775) 
1 - Z4590/B/203/1

>  <smiles>  (775) 
Cc1nn(CC(=O)NC(C)C)c2nc(C3CC3)cc(C(=O)Nc3ccc4c(c3)C(=O)NC4=O)c12

>  <HIPPO Pose ID>  (775) 
125710

>  <energy_score>  (775) 
-35.177872

>  <inchikey>  (775) 
AQDOOVMYDHEJSM-UHFFFAOYSA-N

>  <gnina_score_min>  (775) 
6.667

>  <gnina_score>  (775) 
6.706

>  <ref_mols>  (775) 
Z3559a

>  <HIPPO Compound ID>  (775) 
187831

>  <distance_score>  (775) 
0.599208

>  <rmsd(smina/fragmenstein)>  (775) 
0.635

>  <ref_pdb>  (775) 
Z3559a

>  <inspiration_score>  (775) 
None

$$$$
P125711
     RDKit          3D

 34 39  0  0  0  0  0  0  0  0999 V2000
  -10.8764    2.9485   -5.4461 C   0  0  0  0  0  0  0  0  0  0  0  0
   -9.6238    2.3033   -6.0027 C   0  0  0  0  0  0  0  0  0  0  0  0
   -9.1904    2.9212   -7.2271 N   0  0  0  0  0  0  0  0  0  0  0  0
   -9.1529    2.2047   -8.4933 C   0  0  0  0  0  0  0  0  0  0  0  0
   -8.5916    3.2386   -9.4131 C   0  0  0  0  0  0  0  0  0  0  0  0
   -8.4038    3.2083  -10.7842 C   0  0  0  0  0  0  0  0  0  0  0  0
   -7.8699    4.3499  -11.3959 C   0  0  0  0  0  0  0  0  0  0  0  0
   -7.6570    4.3489  -12.7693 N   0  0  0  0  0  0  0  0  0  0  0  0
   -7.0597    5.4335  -13.6926 C   0  0  0  0  0  0  0  0  0  0  0  0
   -6.5819    6.4672  -13.4353 O   0  0  0  0  0  0  0  0  0  0  0  0
   -7.0904    5.0320  -15.1122 C   0  0  0  0  0  0  0  0  0  0  0  0
   -8.2242    4.4804  -15.7076 C   0  0  0  0  0  0  0  0  0  0  0  0
   -8.2383    4.2516  -17.0838 C   0  0  0  0  0  0  0  0  0  0  0  0
   -9.5122    3.7587  -17.7335 C   0  0  0  0  0  0  0  0  0  0  0  0
   -9.7575    3.9515  -19.2069 C   0  0  0  0  0  0  0  0  0  0  0  0
   -9.4672    2.5808  -18.6728 C   0  0  0  0  0  0  0  0  0  0  0  0
   -7.1732    4.5203  -17.8770 N   0  0  0  0  0  0  0  0  0  0  0  0
   -6.0928    5.0531  -17.2737 C   0  0  0  0  0  0  0  0  0  0  0  0
   -5.9889    5.3282  -15.9216 C   0  0  0  0  0  0  0  0  0  0  0  0
   -4.7090    5.8807  -15.7621 C   0  0  0  0  0  0  0  0  0  0  0  0
   -4.0268    5.9483  -16.9038 N   0  0  0  0  0  0  0  0  0  0  0  0
   -4.8848    5.4483  -17.8484 N   0  0  0  0  0  0  0  0  0  0  0  0
   -4.4614    5.3984  -19.2121 C   0  0  0  0  0  0  0  0  0  0  0  0
   -3.1539    5.8087  -19.5406 C   0  0  0  0  0  0  0  0  0  0  0  0
   -2.6993    5.7459  -20.8606 C   0  0  0  0  0  0  0  0  0  0  0  0
   -3.5467    5.2772  -21.8544 C   0  0  0  0  0  0  0  0  0  0  0  0
   -3.1127    5.2148  -23.1198 F   0  0  0  0  0  0  0  0  0  0  0  0
   -4.8398    4.8759  -21.5521 C   0  0  0  0  0  0  0  0  0  0  0  0
   -5.3015    4.9375  -20.2325 C   0  0  0  0  0  0  0  0  0  0  0  0
   -7.5393    5.4908  -10.6375 C   0  0  0  0  0  0  0  0  0  0  0  0
   -7.7267    5.5134   -9.2593 C   0  0  0  0  0  0  0  0  0  0  0  0
   -8.2473    4.3771   -8.6836 C   0  0  0  0  0  0  0  0  0  0  0  0
   -8.5809    4.1542   -7.2794 C   0  0  0  0  0  0  0  0  0  0  0  0
   -8.3601    4.9439   -6.3797 O   0  0  0  0  0  0  0  0  0  0  0  0
  1  2  1  0
  2  3  1  0
  3  4  1  0
  4  5  1  0
  5  6  2  0
  6  7  1  0
  7  8  1  0
  8  9  1  0
  9 10  2  0
  9 11  1  0
 11 12  2  0
 12 13  1  0
 13 14  1  0
 14 15  1  0
 15 16  1  0
 13 17  2  0
 17 18  1  0
 18 19  2  0
 19 20  1  0
 20 21  2  0
 21 22  1  0
 22 23  1  0
 23 24  2  0
 24 25  1  0
 25 26  2  0
 26 27  1  0
 26 28  1  0
 28 29  2  0
  7 30  2  0
 30 31  1  0
 31 32  2  0
 32 33  1  0
 33 34  2  0
 33  3  1  0
 32  5  1  0
 19 11  1  0
 29 23  1  0
 16 14  1  0
 22 18  1  0
M  END
>  <name>  (776) 
P125711

>  <alias>  (776) 
None

>  <smina_score_min>  (776) 
-10.058

>  <exports>  (776) 
['/opt/xchem-fragalysis-2/maxwin/BulkDock/OUTPUTS/openbind_xx01zvns2b_c2_elabs_1LOUTNY.sdf', '/opt/xchem-fragalysis-2/maxwin/BulkDock/OUTPUTS/openbind_xx01zvns2b_c2_elabs_1LSYIIV.sdf']

>  <tags>  (776) 
syndirella_placed,openbind_xx01zvns2b_c2_elabs,openbind_xx01zvns2b_c2_elabs_scored_6.2plus,syndirella_product,openbind_xx01zvns2b_c2_elabs_scored,openbind_xx01zvns2b_c2_elabs_scored_top80percent,BulkDock Fragalysis export

>  <subsites>  (776) 
1 - Z4590/B/203/1

>  <smiles>  (776) 
CCN1Cc2cc(NC(=O)c3cc(C4CC4)nc4c3cnn4-c3ccc(F)cc3)ccc2C1=O

>  <HIPPO Pose ID>  (776) 
125711

>  <energy_score>  (776) 
-53.600487

>  <inchikey>  (776) 
GKXOFMCTJFJKLT-UHFFFAOYSA-N

>  <gnina_score_min>  (776) 
6.525

>  <gnina_score>  (776) 
6.504

>  <ref_mols>  (776) 
Z3559a

>  <HIPPO Compound ID>  (776) 
187832

>  <distance_score>  (776) 
0.461167

>  <rmsd(smina/fragmenstein)>  (776) 
0.599

>  <ref_pdb>  (776) 
Z3559a

>  <inspiration_score>  (776) 
None

$$$$
P125712
     RDKit          3D

 34 39  0  0  0  0  0  0  0  0999 V2000
   -3.5662    6.0313  -14.2039 C   0  0  0  0  0  0  0  0  0  0  0  0
   -4.2920    5.7089  -15.4600 C   0  0  0  0  0  0  0  0  0  0  0  0
   -3.6203    5.6916  -16.6144 N   0  0  0  0  0  0  0  0  0  0  0  0
   -4.5615    5.4421  -17.5666 N   0  0  0  0  0  0  0  0  0  0  0  0
   -4.1887    5.4950  -18.9292 C   0  0  0  0  0  0  0  0  0  0  0  0
   -2.8530    5.2454  -19.2906 C   0  0  0  0  0  0  0  0  0  0  0  0
   -2.4784    5.2413  -20.6365 C   0  0  0  0  0  0  0  0  0  0  0  0
   -3.4227    5.5196  -21.6232 C   0  0  0  0  0  0  0  0  0  0  0  0
   -4.7346    5.8256  -21.2599 C   0  0  0  0  0  0  0  0  0  0  0  0
   -5.1106    5.8210  -19.9165 C   0  0  0  0  0  0  0  0  0  0  0  0
   -6.3307    6.2715  -19.5995 F   0  0  0  0  0  0  0  0  0  0  0  0
   -5.7881    5.1167  -16.9962 C   0  0  0  0  0  0  0  0  0  0  0  0
   -6.8827    4.6224  -17.6147 N   0  0  0  0  0  0  0  0  0  0  0  0
   -7.9786    4.4244  -16.8384 C   0  0  0  0  0  0  0  0  0  0  0  0
   -9.2417    3.8909  -17.5339 C   0  0  0  0  0  0  0  0  0  0  0  0
   -9.1395    2.8010  -18.5785 C   0  0  0  0  0  0  0  0  0  0  0  0
   -9.5107    4.1909  -18.9891 C   0  0  0  0  0  0  0  0  0  0  0  0
   -7.9603    4.7388  -15.4659 C   0  0  0  0  0  0  0  0  0  0  0  0
   -9.4126    4.7628  -14.5519 Cl  0  0  0  0  0  0  0  0  0  0  0  0
   -6.7792    5.1536  -14.8341 C   0  0  0  0  0  0  0  0  0  0  0  0
   -6.7427    5.5179  -13.3943 C   0  0  0  0  0  0  0  0  0  0  0  0
   -6.3644    6.5871  -13.1120 O   0  0  0  0  0  0  0  0  0  0  0  0
   -7.3085    4.3837  -12.5008 N   0  0  0  0  0  0  0  0  0  0  0  0
   -7.6037    4.3663  -11.1381 C   0  0  0  0  0  0  0  0  0  0  0  0
   -7.4300    5.5093  -10.3438 C   0  0  0  0  0  0  0  0  0  0  0  0
   -7.7698    5.4978   -8.9874 C   0  0  0  0  0  0  0  0  0  0  0  0
   -8.2790    4.3313   -8.4475 C   0  0  0  0  0  0  0  0  0  0  0  0
   -8.4677    3.1979   -9.2336 C   0  0  0  0  0  0  0  0  0  0  0  0
   -8.1401    3.1973  -10.5820 C   0  0  0  0  0  0  0  0  0  0  0  0
   -9.0629    2.1082   -8.3955 C   0  0  0  0  0  0  0  0  0  0  0  0
   -8.9894    2.6109   -7.0069 N   0  0  0  0  0  0  0  0  0  0  0  0
  -10.1183    2.2350   -6.1825 C   0  0  0  0  0  0  0  0  0  0  0  0
   -8.7203    4.0525   -7.0469 C   0  0  0  0  0  0  0  0  0  0  0  0
   -5.6491    5.3463  -15.6339 C   0  0  0  0  0  0  0  0  0  0  0  0
  1  2  1  0
  2  3  2  0
  3  4  1  0
  4  5  1  0
  5  6  2  0
  6  7  1  0
  7  8  2  0
  8  9  1  0
  9 10  2  0
 10 11  1  0
  4 12  1  0
 12 13  2  0
 13 14  1  0
 14 15  1  0
 15 16  1  0
 16 17  1  0
 14 18  2  0
 18 19  1  0
 18 20  1  0
 20 21  1  0
 21 22  2  0
 21 23  1  0
 23 24  1  0
 24 25  2  0
 25 26  1  0
 26 27  2  0
 27 28  1  0
 28 29  2  0
 28 30  1  0
 30 31  1  0
 31 32  1  0
 31 33  1  0
 20 34  2  0
 34  2  1  0
 10  5  1  0
 34 12  1  0
 17 15  1  0
 29 24  1  0
 33 27  1  0
M  END
>  <name>  (777) 
P125712

>  <alias>  (777) 
None

>  <smina_score_min>  (777) 
-9.068

>  <exports>  (777) 
['/opt/xchem-fragalysis-2/maxwin/BulkDock/OUTPUTS/openbind_xx01zvns2b_c2_elabs_1LOUTNY.sdf', '/opt/xchem-fragalysis-2/maxwin/BulkDock/OUTPUTS/openbind_xx01zvns2b_c2_elabs_1LSYIIV.sdf']

>  <tags>  (777) 
syndirella_placed,openbind_xx01zvns2b_c2_elabs,openbind_xx01zvns2b_c2_elabs_scored_6.2plus,syndirella_product,openbind_xx01zvns2b_c2_elabs_scored,openbind_xx01zvns2b_c2_elabs_scored_top80percent,BulkDock Fragalysis export

>  <subsites>  (777) 
1 - Z4590/B/203/1

>  <smiles>  (777) 
Cc1nn(-c2ccccc2F)c2nc(C3CC3)c(Cl)c(C(=O)Nc3ccc4c(c3)CN(C)C4)c12

>  <HIPPO Pose ID>  (777) 
125712

>  <energy_score>  (777) 
-47.399135

>  <inchikey>  (777) 
IIGUPBBPJIJAHZ-UHFFFAOYSA-N

>  <gnina_score_min>  (777) 
6.761

>  <gnina_score>  (777) 
6.863

>  <ref_mols>  (777) 
Z3559a

>  <HIPPO Compound ID>  (777) 
187833

>  <distance_score>  (777) 
0.639111

>  <rmsd(smina/fragmenstein)>  (777) 
0.453

>  <ref_pdb>  (777) 
Z3559a

>  <inspiration_score>  (777) 
None

$$$$
P125713
     RDKit          3D

 34 39  0  0  0  0  0  0  0  0999 V2000
  -10.3902    1.5970   -6.5604 O   0  0  0  0  0  0  0  0  0  0  0  0
   -9.2429    1.7952   -6.8420 C   0  0  0  0  0  0  0  0  0  0  0  0
   -8.6543    2.2237   -8.0487 N   0  0  0  0  0  0  0  0  0  0  0  0
   -8.5468    3.7546   -8.0647 C   0  0  0  0  0  0  0  0  0  0  0  0
   -8.0921    4.3262   -9.3465 C   0  0  0  0  0  0  0  0  0  0  0  0
   -7.5378    5.5174   -9.7431 C   0  0  0  0  0  0  0  0  0  0  0  0
   -7.3634    5.7454  -11.1232 C   0  0  0  0  0  0  0  0  0  0  0  0
   -6.9133    7.5466  -11.5331 Br  0  0  0  0  0  0  0  0  0  0  0  0
   -7.6891    4.7411  -12.0714 C   0  0  0  0  0  0  0  0  0  0  0  0
   -7.4679    4.7460  -13.4648 N   0  0  0  0  0  0  0  0  0  0  0  0
   -6.5830    5.5343  -14.2770 C   0  0  0  0  0  0  0  0  0  0  0  0
   -5.8616    6.4457  -13.9908 O   0  0  0  0  0  0  0  0  0  0  0  0
   -6.5693    5.1684  -15.7260 C   0  0  0  0  0  0  0  0  0  0  0  0
   -7.6777    4.6651  -16.4265 C   0  0  0  0  0  0  0  0  0  0  0  0
   -7.5990    4.4293  -17.8068 C   0  0  0  0  0  0  0  0  0  0  0  0
   -8.7498    3.9040  -18.6396 C   0  0  0  0  0  0  0  0  0  0  0  0
  -10.1822    3.8603  -18.1895 C   0  0  0  0  0  0  0  0  0  0  0  0
   -9.3840    2.5895  -18.2739 C   0  0  0  0  0  0  0  0  0  0  0  0
   -6.4758    4.6740  -18.5107 N   0  0  0  0  0  0  0  0  0  0  0  0
   -5.4299    5.1694  -17.8275 C   0  0  0  0  0  0  0  0  0  0  0  0
   -5.4018    5.4207  -16.4677 C   0  0  0  0  0  0  0  0  0  0  0  0
   -4.0936    5.8819  -16.2285 C   0  0  0  0  0  0  0  0  0  0  0  0
   -3.3340    5.8967  -17.3241 N   0  0  0  0  0  0  0  0  0  0  0  0
   -4.1684    5.4866  -18.3236 N   0  0  0  0  0  0  0  0  0  0  0  0
   -3.6868    5.3993  -19.6657 C   0  0  0  0  0  0  0  0  0  0  0  0
   -2.3034    5.4820  -19.9029 C   0  0  0  0  0  0  0  0  0  0  0  0
   -1.7992    5.3392  -21.1983 C   0  0  0  0  0  0  0  0  0  0  0  0
   -2.6728    5.1332  -22.2571 C   0  0  0  0  0  0  0  0  0  0  0  0
   -2.1894    4.9857  -23.4974 F   0  0  0  0  0  0  0  0  0  0  0  0
   -4.0443    5.0727  -22.0467 C   0  0  0  0  0  0  0  0  0  0  0  0
   -4.5549    5.2039  -20.7517 C   0  0  0  0  0  0  0  0  0  0  0  0
   -8.3217    3.5734  -11.6033 C   0  0  0  0  0  0  0  0  0  0  0  0
   -8.5137    3.4123  -10.2480 C   0  0  0  0  0  0  0  0  0  0  0  0
   -9.2577    2.4622   -9.4034 C   0  0  0  0  0  0  0  0  0  0  0  0
  1  2  2  0
  2  3  1  0
  3  4  1  0
  4  5  1  0
  5  6  2  0
  6  7  1  0
  7  8  1  0
  7  9  2  0
  9 10  1  0
 10 11  1  0
 11 12  2  0
 11 13  1  0
 13 14  2  0
 14 15  1  0
 15 16  1  0
 16 17  1  0
 17 18  1  0
 15 19  2  0
 19 20  1  0
 20 21  2  0
 21 22  1  0
 22 23  2  0
 23 24  1  0
 24 25  1  0
 25 26  2  0
 26 27  1  0
 27 28  2  0
 28 29  1  0
 28 30  1  0
 30 31  2  0
  9 32  1  0
 32 33  2  0
 33 34  1  0
 34  3  1  0
 33  5  1  0
 21 13  1  0
 31 25  1  0
 18 16  1  0
 24 20  1  0
M  END
>  <name>  (778) 
P125713

>  <alias>  (778) 
None

>  <smina_score_min>  (778) 
-9.444

>  <exports>  (778) 
['/opt/xchem-fragalysis-2/maxwin/BulkDock/OUTPUTS/openbind_xx01zvns2b_c2_elabs_1LOUTNY.sdf', '/opt/xchem-fragalysis-2/maxwin/BulkDock/OUTPUTS/openbind_xx01zvns2b_c2_elabs_1LSYIIV.sdf']

>  <tags>  (778) 
syndirella_placed,openbind_xx01zvns2b_c2_elabs,openbind_xx01zvns2b_c2_elabs_scored_6.2plus,syndirella_product,openbind_xx01zvns2b_c2_elabs_scored,openbind_xx01zvns2b_c2_elabs_scored_top80percent,BulkDock Fragalysis export

>  <subsites>  (778) 
1 - Z4590/B/203/1

>  <smiles>  (778) 
O=CN1Cc2cc(Br)c(NC(=O)c3cc(C4CC4)nc4c3cnn4-c3ccc(F)cc3)cc2C1

>  <HIPPO Pose ID>  (778) 
125713

>  <energy_score>  (778) 
-28.933192

>  <inchikey>  (778) 
HYRZEZLVBILWSW-UHFFFAOYSA-N

>  <gnina_score_min>  (778) 
6.841

>  <gnina_score>  (778) 
6.753

>  <ref_mols>  (778) 
Z3559a

>  <HIPPO Compound ID>  (778) 
187834

>  <distance_score>  (778) 
1.117299

>  <rmsd(smina/fragmenstein)>  (778) 
0.643

>  <ref_pdb>  (778) 
Z3559a

>  <inspiration_score>  (778) 
None

$$$$
P125715
     RDKit          3D

 34 39  0  0  0  0  0  0  0  0999 V2000
  -10.0138    2.4930   -5.9046 C   0  0  0  0  0  0  0  0  0  0  0  0
   -8.9027    2.8943   -6.7509 N   0  0  0  0  0  0  0  0  0  0  0  0
   -9.0346    2.3119   -8.1129 C   0  0  0  0  0  0  0  0  0  0  0  0
   -8.6526    3.4010   -9.0613 C   0  0  0  0  0  0  0  0  0  0  0  0
   -8.5049    3.3346  -10.4455 C   0  0  0  0  0  0  0  0  0  0  0  0
   -8.1194    4.4914  -11.1280 C   0  0  0  0  0  0  0  0  0  0  0  0
   -7.9417    4.4589  -12.5140 N   0  0  0  0  0  0  0  0  0  0  0  0
   -7.3308    5.5083  -13.4741 C   0  0  0  0  0  0  0  0  0  0  0  0
   -6.9516    6.5942  -13.2671 O   0  0  0  0  0  0  0  0  0  0  0  0
   -7.2613    5.0354  -14.8759 C   0  0  0  0  0  0  0  0  0  0  0  0
   -8.3624    4.4755  -15.5271 C   0  0  0  0  0  0  0  0  0  0  0  0
   -8.3145    4.2463  -16.9057 C   0  0  0  0  0  0  0  0  0  0  0  0
   -9.5553    3.7688  -17.6309 C   0  0  0  0  0  0  0  0  0  0  0  0
   -9.7346    4.0127  -19.1090 C   0  0  0  0  0  0  0  0  0  0  0  0
   -9.4620    2.6258  -18.6113 C   0  0  0  0  0  0  0  0  0  0  0  0
   -7.2153    4.5152  -17.6476 N   0  0  0  0  0  0  0  0  0  0  0  0
   -6.1661    5.0488  -16.9955 C   0  0  0  0  0  0  0  0  0  0  0  0
   -6.1213    5.3236  -15.6389 C   0  0  0  0  0  0  0  0  0  0  0  0
   -4.8487    5.8794  -15.4317 C   0  0  0  0  0  0  0  0  0  0  0  0
   -4.1174    5.9401  -16.5448 N   0  0  0  0  0  0  0  0  0  0  0  0
   -4.9432    5.4565  -17.5252 N   0  0  0  0  0  0  0  0  0  0  0  0
   -4.4856    5.4431  -18.8797 C   0  0  0  0  0  0  0  0  0  0  0  0
   -3.1600    5.8304  -19.1582 C   0  0  0  0  0  0  0  0  0  0  0  0
   -2.6747    5.8114  -20.4685 C   0  0  0  0  0  0  0  0  0  0  0  0
   -3.5099    5.4112  -21.5022 C   0  0  0  0  0  0  0  0  0  0  0  0
   -3.0450    5.3918  -22.7580 F   0  0  0  0  0  0  0  0  0  0  0  0
   -4.8216    5.0359  -21.2496 C   0  0  0  0  0  0  0  0  0  0  0  0
   -5.3138    5.0525  -19.9397 C   0  0  0  0  0  0  0  0  0  0  0  0
   -7.9115    5.6838  -10.4162 C   0  0  0  0  0  0  0  0  0  0  0  0
   -8.0773    5.7380   -9.0277 C   0  0  0  0  0  0  0  0  0  0  0  0
   -8.4477    4.5856   -8.3543 C   0  0  0  0  0  0  0  0  0  0  0  0
   -8.5955    4.3441   -6.8670 C   0  0  0  0  0  0  0  0  0  0  0  0
   -9.5831    5.2956   -6.1616 C   0  0  0  0  0  0  0  0  0  0  0  0
   -7.2281    4.6157   -6.2079 C   0  0  0  0  0  0  0  0  0  0  0  0
  1  2  1  0
  2  3  1  0
  3  4  1  0
  4  5  2  0
  5  6  1  0
  6  7  1  0
  7  8  1  0
  8  9  2  0
  8 10  1  0
 10 11  2  0
 11 12  1  0
 12 13  1  0
 13 14  1  0
 14 15  1  0
 12 16  2  0
 16 17  1  0
 17 18  2  0
 18 19  1  0
 19 20  2  0
 20 21  1  0
 21 22  1  0
 22 23  2  0
 23 24  1  0
 24 25  2  0
 25 26  1  0
 25 27  1  0
 27 28  2  0
  6 29  2  0
 29 30  1  0
 30 31  2  0
 31 32  1  0
 32 33  1  0
 32 34  1  0
 32  2  1  0
 31  4  1  0
 18 10  1  0
 28 22  1  0
 15 13  1  0
 21 17  1  0
M  END
>  <name>  (779) 
P125715

>  <alias>  (779) 
None

>  <smina_score_min>  (779) 
-9.873

>  <exports>  (779) 
['/opt/xchem-fragalysis-2/maxwin/BulkDock/OUTPUTS/openbind_xx01zvns2b_c2_elabs_1LOUTNY.sdf', '/opt/xchem-fragalysis-2/maxwin/BulkDock/OUTPUTS/openbind_xx01zvns2b_c2_elabs_1LSYIIV.sdf']

>  <tags>  (779) 
syndirella_placed,openbind_xx01zvns2b_c2_elabs,openbind_xx01zvns2b_c2_elabs_scored_6.2plus,syndirella_product,openbind_xx01zvns2b_c2_elabs_scored,openbind_xx01zvns2b_c2_elabs_scored_top80percent,BulkDock Fragalysis export

>  <subsites>  (779) 
1 - Z4590/B/203/1

>  <smiles>  (779) 
CN1Cc2cc(NC(=O)c3cc(C4CC4)nc4c3cnn4-c3ccc(F)cc3)ccc2C1(C)C

>  <HIPPO Pose ID>  (779) 
125715

>  <energy_score>  (779) 
-74.125182

>  <inchikey>  (779) 
WGVZUAXRIMBEML-UHFFFAOYSA-N

>  <gnina_score_min>  (779) 
6.471

>  <gnina_score>  (779) 
6.49

>  <ref_mols>  (779) 
Z3559a

>  <HIPPO Compound ID>  (779) 
187837

>  <distance_score>  (779) 
0.493976

>  <rmsd(smina/fragmenstein)>  (779) 
0.589

>  <ref_pdb>  (779) 
Z3559a

>  <inspiration_score>  (779) 
None

$$$$
P125716
     RDKit          3D

 34 39  0  0  0  0  0  0  0  0999 V2000
  -10.4805    1.5421   -5.7758 C   0  0  0  0  0  0  0  0  0  0  0  0
   -9.8609    2.9041   -5.8697 C   0  0  0  0  0  0  0  0  0  0  0  0
   -9.1338    3.1881   -7.0853 N   0  0  0  0  0  0  0  0  0  0  0  0
   -8.3660    4.4035   -7.1476 C   0  0  0  0  0  0  0  0  0  0  0  0
   -8.0807    4.5426   -8.5922 C   0  0  0  0  0  0  0  0  0  0  0  0
   -7.4580    5.5848   -9.2376 C   0  0  0  0  0  0  0  0  0  0  0  0
   -7.3463    5.5053  -10.6212 C   0  0  0  0  0  0  0  0  0  0  0  0
   -7.8383    4.3966  -11.3407 C   0  0  0  0  0  0  0  0  0  0  0  0
   -7.6678    4.3707  -12.7216 N   0  0  0  0  0  0  0  0  0  0  0  0
   -7.0279    5.4080  -13.6746 C   0  0  0  0  0  0  0  0  0  0  0  0
   -6.4751    6.4109  -13.4415 O   0  0  0  0  0  0  0  0  0  0  0  0
   -7.0856    5.0047  -15.0944 C   0  0  0  0  0  0  0  0  0  0  0  0
   -8.2253    4.4655  -15.6882 C   0  0  0  0  0  0  0  0  0  0  0  0
   -8.2463    4.2477  -17.0679 C   0  0  0  0  0  0  0  0  0  0  0  0
   -9.5229    3.7618  -17.7180 C   0  0  0  0  0  0  0  0  0  0  0  0
   -9.7712    3.9632  -19.1902 C   0  0  0  0  0  0  0  0  0  0  0  0
   -9.4797    2.5894  -18.6648 C   0  0  0  0  0  0  0  0  0  0  0  0
   -7.1847    4.5175  -17.8667 N   0  0  0  0  0  0  0  0  0  0  0  0
   -6.0959    5.0332  -17.2651 C   0  0  0  0  0  0  0  0  0  0  0  0
   -5.9846    5.2952  -15.9115 C   0  0  0  0  0  0  0  0  0  0  0  0
   -4.6961    5.8302  -15.7535 C   0  0  0  0  0  0  0  0  0  0  0  0
   -4.0148    5.8924  -16.8951 N   0  0  0  0  0  0  0  0  0  0  0  0
   -4.8784    5.4023  -17.8388 N   0  0  0  0  0  0  0  0  0  0  0  0
   -4.4449    5.3211  -19.1974 C   0  0  0  0  0  0  0  0  0  0  0  0
   -5.3041    4.9184  -20.2260 C   0  0  0  0  0  0  0  0  0  0  0  0
   -4.8278    4.8036  -21.5372 C   0  0  0  0  0  0  0  0  0  0  0  0
   -3.4991    5.0865  -21.8218 C   0  0  0  0  0  0  0  0  0  0  0  0
   -3.0502    4.9628  -23.0779 F   0  0  0  0  0  0  0  0  0  0  0  0
   -2.6309    5.4921  -20.8184 C   0  0  0  0  0  0  0  0  0  0  0  0
   -3.1028    5.6178  -19.5086 C   0  0  0  0  0  0  0  0  0  0  0  0
   -8.4731    3.3447  -10.6769 C   0  0  0  0  0  0  0  0  0  0  0  0
   -8.5849    3.4525   -9.2998 C   0  0  0  0  0  0  0  0  0  0  0  0
   -9.2960    2.5966   -8.3363 C   0  0  0  0  0  0  0  0  0  0  0  0
   -9.9479    1.6243   -8.6576 O   0  0  0  0  0  0  0  0  0  0  0  0
  1  2  1  0
  2  3  1  0
  3  4  1  0
  4  5  1  0
  5  6  2  0
  6  7  1  0
  7  8  2  0
  8  9  1  0
  9 10  1  0
 10 11  2  0
 10 12  1  0
 12 13  2  0
 13 14  1  0
 14 15  1  0
 15 16  1  0
 16 17  1  0
 14 18  2  0
 18 19  1  0
 19 20  2  0
 20 21  1  0
 21 22  2  0
 22 23  1  0
 23 24  1  0
 24 25  2  0
 25 26  1  0
 26 27  2  0
 27 28  1  0
 27 29  1  0
 29 30  2  0
  8 31  1  0
 31 32  2  0
 32 33  1  0
 33 34  2  0
 33  3  1  0
 32  5  1  0
 20 12  1  0
 30 24  1  0
 17 15  1  0
 23 19  1  0
M  END
>  <name>  (780) 
P125716

>  <alias>  (780) 
None

>  <smina_score_min>  (780) 
-9.917

>  <exports>  (780) 
['/opt/xchem-fragalysis-2/maxwin/BulkDock/OUTPUTS/openbind_xx01zvns2b_c2_elabs_1LOUTNY.sdf', '/opt/xchem-fragalysis-2/maxwin/BulkDock/OUTPUTS/openbind_xx01zvns2b_c2_elabs_1LSYIIV.sdf']

>  <tags>  (780) 
syndirella_placed,openbind_xx01zvns2b_c2_elabs,openbind_xx01zvns2b_c2_elabs_scored_6.2plus,syndirella_product,openbind_xx01zvns2b_c2_elabs_scored,openbind_xx01zvns2b_c2_elabs_scored_top80percent,BulkDock Fragalysis export

>  <subsites>  (780) 
1 - Z4590/B/203/1

>  <smiles>  (780) 
CCN1Cc2ccc(NC(=O)c3cc(C4CC4)nc4c3cnn4-c3ccc(F)cc3)cc2C1=O

>  <HIPPO Pose ID>  (780) 
125716

>  <energy_score>  (780) 
-55.91202

>  <inchikey>  (780) 
RLYJSRAUISBZJI-UHFFFAOYSA-N

>  <gnina_score_min>  (780) 
6.37

>  <gnina_score>  (780) 
6.481

>  <ref_mols>  (780) 
Z3559a

>  <HIPPO Compound ID>  (780) 
187838

>  <distance_score>  (780) 
0.553938

>  <rmsd(smina/fragmenstein)>  (780) 
0.673

>  <ref_pdb>  (780) 
Z3559a

>  <inspiration_score>  (780) 
None

$$$$
P125717
     RDKit          3D

 34 39  0  0  0  0  0  0  0  0999 V2000
   -3.6313    6.2142  -14.4502 C   0  0  0  0  0  0  0  0  0  0  0  0
   -4.3883    5.8139  -15.6644 C   0  0  0  0  0  0  0  0  0  0  0  0
   -3.7948    5.8997  -16.8562 N   0  0  0  0  0  0  0  0  0  0  0  0
   -4.7154    5.4512  -17.7657 N   0  0  0  0  0  0  0  0  0  0  0  0
   -4.3557    5.4558  -19.1486 C   0  0  0  0  0  0  0  0  0  0  0  0
   -3.1268    6.0424  -19.5200 C   0  0  0  0  0  0  0  0  0  0  0  0
   -2.7140    6.0778  -20.8564 C   0  0  0  0  0  0  0  0  0  0  0  0
   -3.5193    5.5306  -21.8481 C   0  0  0  0  0  0  0  0  0  0  0  0
   -4.7267    4.9372  -21.4950 C   0  0  0  0  0  0  0  0  0  0  0  0
   -5.1372    4.8945  -20.1586 C   0  0  0  0  0  0  0  0  0  0  0  0
   -6.2499    4.1990  -19.9146 F   0  0  0  0  0  0  0  0  0  0  0  0
   -5.8979    5.0897  -17.1222 C   0  0  0  0  0  0  0  0  0  0  0  0
   -7.0230    4.6111  -17.6782 N   0  0  0  0  0  0  0  0  0  0  0  0
   -8.0817    4.3951  -16.8710 C   0  0  0  0  0  0  0  0  0  0  0  0
   -9.3589    3.8729  -17.5376 C   0  0  0  0  0  0  0  0  0  0  0  0
   -9.6432    4.1498  -18.9950 C   0  0  0  0  0  0  0  0  0  0  0  0
   -9.2757    2.7641  -18.5646 C   0  0  0  0  0  0  0  0  0  0  0  0
   -8.0072    4.6926  -15.5018 C   0  0  0  0  0  0  0  0  0  0  0  0
   -9.4263    4.7236  -14.5372 Cl  0  0  0  0  0  0  0  0  0  0  0  0
   -6.8028    5.1104  -14.9158 C   0  0  0  0  0  0  0  0  0  0  0  0
   -6.7279    5.4591  -13.4696 C   0  0  0  0  0  0  0  0  0  0  0  0
   -6.3654    6.5324  -13.1806 O   0  0  0  0  0  0  0  0  0  0  0  0
   -7.2648    4.3049  -12.5802 N   0  0  0  0  0  0  0  0  0  0  0  0
   -7.5454    4.2692  -11.2133 C   0  0  0  0  0  0  0  0  0  0  0  0
   -7.3022    5.3770  -10.3835 C   0  0  0  0  0  0  0  0  0  0  0  0
   -7.6108    5.3297   -9.0191 C   0  0  0  0  0  0  0  0  0  0  0  0
   -8.1591    4.1617   -8.5266 C   0  0  0  0  0  0  0  0  0  0  0  0
   -8.4225    3.0598   -9.3341 C   0  0  0  0  0  0  0  0  0  0  0  0
   -8.1253    3.1017  -10.6877 C   0  0  0  0  0  0  0  0  0  0  0  0
   -8.9759    1.9493   -8.5041 C   0  0  0  0  0  0  0  0  0  0  0  0
   -9.0834    2.5529   -7.1914 N   0  0  0  0  0  0  0  0  0  0  0  0
   -8.5193    3.8101   -7.1473 C   0  0  0  0  0  0  0  0  0  0  0  0
   -8.3180    4.4995   -6.1653 O   0  0  0  0  0  0  0  0  0  0  0  0
   -5.7157    5.3457  -15.7676 C   0  0  0  0  0  0  0  0  0  0  0  0
  1  2  1  0
  2  3  2  0
  3  4  1  0
  4  5  1  0
  5  6  2  0
  6  7  1  0
  7  8  2  0
  8  9  1  0
  9 10  2  0
 10 11  1  0
  4 12  1  0
 12 13  2  0
 13 14  1  0
 14 15  1  0
 15 16  1  0
 16 17  1  0
 14 18  2  0
 18 19  1  0
 18 20  1  0
 20 21  1  0
 21 22  2  0
 21 23  1  0
 23 24  1  0
 24 25  2  0
 25 26  1  0
 26 27  2  0
 27 28  1  0
 28 29  2  0
 28 30  1  0
 30 31  1  0
 31 32  1  0
 32 33  2  0
 20 34  2  0
 34  2  1  0
 10  5  1  0
 34 12  1  0
 17 15  1  0
 29 24  1  0
 32 27  1  0
M  END
>  <name>  (781) 
P125717

>  <alias>  (781) 
None

>  <smina_score_min>  (781) 
-9.121

>  <exports>  (781) 
['/opt/xchem-fragalysis-2/maxwin/BulkDock/OUTPUTS/openbind_xx01zvns2b_c2_elabs_1LOUTNY.sdf', '/opt/xchem-fragalysis-2/maxwin/BulkDock/OUTPUTS/openbind_xx01zvns2b_c2_elabs_1LSYIIV.sdf']

>  <tags>  (781) 
syndirella_placed,openbind_xx01zvns2b_c2_elabs,openbind_xx01zvns2b_c2_elabs_scored_6.2plus,syndirella_product,openbind_xx01zvns2b_c2_elabs_scored,openbind_xx01zvns2b_c2_elabs_scored_top80percent,BulkDock Fragalysis export

>  <subsites>  (781) 
1 - Z4590/B/203/1

>  <smiles>  (781) 
Cc1nn(-c2ccccc2F)c2nc(C3CC3)c(Cl)c(C(=O)Nc3ccc4c(c3)CNC4=O)c12

>  <HIPPO Pose ID>  (781) 
125717

>  <energy_score>  (781) 
-55.274177

>  <inchikey>  (781) 
OXQSBZMHEFLSGA-UHFFFAOYSA-N

>  <gnina_score_min>  (781) 
6.755

>  <gnina_score>  (781) 
6.849

>  <ref_mols>  (781) 
Z3559a

>  <HIPPO Compound ID>  (781) 
187839

>  <distance_score>  (781) 
0.576404

>  <rmsd(smina/fragmenstein)>  (781) 
0.38

>  <ref_pdb>  (781) 
Z3559a

>  <inspiration_score>  (781) 
None

$$$$
P125718
     RDKit          3D

 34 39  0  0  0  0  0  0  0  0999 V2000
   -9.9864    4.7059   -4.5174 C   0  0  0  0  0  0  0  0  0  0  0  0
  -10.1219    3.2109   -4.7401 C   0  0  0  0  0  0  0  0  0  0  0  0
  -10.1465    2.6765   -6.1784 C   0  0  0  0  0  0  0  0  0  0  0  0
   -8.9521    2.8753   -6.9903 N   0  0  0  0  0  0  0  0  0  0  0  0
   -8.5527    4.2702   -7.1774 C   0  0  0  0  0  0  0  0  0  0  0  0
   -8.2386    4.4312   -8.6187 C   0  0  0  0  0  0  0  0  0  0  0  0
   -7.7782    5.5659   -9.2523 C   0  0  0  0  0  0  0  0  0  0  0  0
   -7.6341    5.5208  -10.6318 C   0  0  0  0  0  0  0  0  0  0  0  0
   -7.9493    4.3572  -11.3535 C   0  0  0  0  0  0  0  0  0  0  0  0
   -7.8062    4.3662  -12.7383 N   0  0  0  0  0  0  0  0  0  0  0  0
   -7.1886    5.4286  -13.6772 C   0  0  0  0  0  0  0  0  0  0  0  0
   -6.7731    6.4952  -13.4442 O   0  0  0  0  0  0  0  0  0  0  0  0
   -7.1666    4.9972  -15.0853 C   0  0  0  0  0  0  0  0  0  0  0  0
   -8.2867    4.4492  -15.7065 C   0  0  0  0  0  0  0  0  0  0  0  0
   -8.2713    4.2310  -17.0839 C   0  0  0  0  0  0  0  0  0  0  0  0
   -9.5352    3.7547  -17.7636 C   0  0  0  0  0  0  0  0  0  0  0  0
   -9.7284    3.9209  -19.2476 C   0  0  0  0  0  0  0  0  0  0  0  0
   -9.4886    2.5559  -18.6748 C   0  0  0  0  0  0  0  0  0  0  0  0
   -7.1884    4.5007  -17.8526 N   0  0  0  0  0  0  0  0  0  0  0  0
   -6.1188    5.0253  -17.2226 C   0  0  0  0  0  0  0  0  0  0  0  0
   -6.0444    5.2919  -15.8668 C   0  0  0  0  0  0  0  0  0  0  0  0
   -4.7669    5.8398  -15.6755 C   0  0  0  0  0  0  0  0  0  0  0  0
   -4.0540    5.8986  -16.7987 N   0  0  0  0  0  0  0  0  0  0  0  0
   -4.8921    5.4084  -17.7659 N   0  0  0  0  0  0  0  0  0  0  0  0
   -4.4349    5.3502  -19.1178 C   0  0  0  0  0  0  0  0  0  0  0  0
   -5.2800    4.9769  -20.1695 C   0  0  0  0  0  0  0  0  0  0  0  0
   -4.7861    4.8980  -21.4765 C   0  0  0  0  0  0  0  0  0  0  0  0
   -3.4528    5.1860  -21.7337 C   0  0  0  0  0  0  0  0  0  0  0  0
   -2.9881    5.1043  -22.9873 F   0  0  0  0  0  0  0  0  0  0  0  0
   -2.5976    5.5589  -20.7064 C   0  0  0  0  0  0  0  0  0  0  0  0
   -3.0876    5.6501  -19.4004 C   0  0  0  0  0  0  0  0  0  0  0  0
   -8.4135    3.2123  -10.6925 C   0  0  0  0  0  0  0  0  0  0  0  0
   -8.5523    3.2689   -9.3124 C   0  0  0  0  0  0  0  0  0  0  0  0
   -9.0643    2.2468   -8.3401 C   0  0  0  0  0  0  0  0  0  0  0  0
  1  2  1  0
  2  3  1  0
  3  4  1  0
  4  5  1  0
  5  6  1  0
  6  7  2  0
  7  8  1  0
  8  9  2  0
  9 10  1  0
 10 11  1  0
 11 12  2  0
 11 13  1  0
 13 14  2  0
 14 15  1  0
 15 16  1  0
 16 17  1  0
 17 18  1  0
 15 19  2  0
 19 20  1  0
 20 21  2  0
 21 22  1  0
 22 23  2  0
 23 24  1  0
 24 25  1  0
 25 26  2  0
 26 27  1  0
 27 28  2  0
 28 29  1  0
 28 30  1  0
 30 31  2  0
  9 32  1  0
 32 33  2  0
 33 34  1  0
 34  4  1  0
 33  6  1  0
 21 13  1  0
 31 25  1  0
 18 16  1  0
 24 20  1  0
M  END
>  <name>  (782) 
P125718

>  <alias>  (782) 
None

>  <smina_score_min>  (782) 
-9.721

>  <exports>  (782) 
['/opt/xchem-fragalysis-2/maxwin/BulkDock/OUTPUTS/openbind_xx01zvns2b_c2_elabs_1LOUTNY.sdf', '/opt/xchem-fragalysis-2/maxwin/BulkDock/OUTPUTS/openbind_xx01zvns2b_c2_elabs_1LSYIIV.sdf']

>  <tags>  (782) 
syndirella_placed,openbind_xx01zvns2b_c2_elabs,openbind_xx01zvns2b_c2_elabs_scored_6.2plus,syndirella_product,openbind_xx01zvns2b_c2_elabs_scored,openbind_xx01zvns2b_c2_elabs_scored_top80percent,BulkDock Fragalysis export

>  <subsites>  (782) 
1 - Z4590/B/203/1

>  <smiles>  (782) 
CCCN1Cc2ccc(NC(=O)c3cc(C4CC4)nc4c3cnn4-c3ccc(F)cc3)cc2C1

>  <HIPPO Pose ID>  (782) 
125718

>  <energy_score>  (782) 
-85.165278

>  <inchikey>  (782) 
GYYMTWFHVAXRQF-UHFFFAOYSA-N

>  <gnina_score_min>  (782) 
6.535

>  <gnina_score>  (782) 
6.52

>  <ref_mols>  (782) 
Z3559a

>  <HIPPO Compound ID>  (782) 
187840

>  <distance_score>  (782) 
0.444021

>  <rmsd(smina/fragmenstein)>  (782) 
1.166

>  <ref_pdb>  (782) 
Z3559a

>  <inspiration_score>  (782) 
None

$$$$
P125719
     RDKit          3D

 34 39  0  0  0  0  0  0  0  0999 V2000
  -10.0638    2.0908   -6.0622 C   0  0  0  0  0  0  0  0  0  0  0  0
   -9.3373    2.6501   -7.1718 N   0  0  0  0  0  0  0  0  0  0  0  0
   -8.7033    3.8575   -7.1421 C   0  0  0  0  0  0  0  0  0  0  0  0
   -8.5335    4.6310   -6.2162 O   0  0  0  0  0  0  0  0  0  0  0  0
   -8.2962    4.1391   -8.5168 C   0  0  0  0  0  0  0  0  0  0  0  0
   -7.6945    5.2571   -9.0512 C   0  0  0  0  0  0  0  0  0  0  0  0
   -7.5097    5.2800  -10.4373 C   0  0  0  0  0  0  0  0  0  0  0  0
   -7.9239    4.2027  -11.2515 C   0  0  0  0  0  0  0  0  0  0  0  0
   -7.7261    4.2485  -12.6302 N   0  0  0  0  0  0  0  0  0  0  0  0
   -7.0874    5.3432  -13.5180 C   0  0  0  0  0  0  0  0  0  0  0  0
   -6.5583    6.3426  -13.2247 O   0  0  0  0  0  0  0  0  0  0  0  0
   -7.1269    4.9984  -14.9595 C   0  0  0  0  0  0  0  0  0  0  0  0
   -8.2584    4.4707  -15.5854 C   0  0  0  0  0  0  0  0  0  0  0  0
   -8.2605    4.2715  -16.9692 C   0  0  0  0  0  0  0  0  0  0  0  0
   -9.5223    3.7856  -17.6515 C   0  0  0  0  0  0  0  0  0  0  0  0
   -9.7516    4.0194  -19.1233 C   0  0  0  0  0  0  0  0  0  0  0  0
   -9.4520    2.6372  -18.6278 C   0  0  0  0  0  0  0  0  0  0  0  0
   -7.1877    4.5550  -17.7445 N   0  0  0  0  0  0  0  0  0  0  0  0
   -6.1093    5.0619  -17.1178 C   0  0  0  0  0  0  0  0  0  0  0  0
   -6.0161    5.3049  -15.7579 C   0  0  0  0  0  0  0  0  0  0  0  0
   -4.7267    5.8312  -15.5779 C   0  0  0  0  0  0  0  0  0  0  0  0
   -4.0289    5.9007  -16.7102 N   0  0  0  0  0  0  0  0  0  0  0  0
   -4.8824    5.4284  -17.6712 N   0  0  0  0  0  0  0  0  0  0  0  0
   -4.4348    5.3546  -19.0261 C   0  0  0  0  0  0  0  0  0  0  0  0
   -3.0782    5.6032  -19.3148 C   0  0  0  0  0  0  0  0  0  0  0  0
   -2.5944    5.4783  -20.6205 C   0  0  0  0  0  0  0  0  0  0  0  0
   -3.4654    5.1265  -21.6421 C   0  0  0  0  0  0  0  0  0  0  0  0
   -3.0048    5.0011  -22.8937 F   0  0  0  0  0  0  0  0  0  0  0  0
   -4.8092    4.8965  -21.3801 C   0  0  0  0  0  0  0  0  0  0  0  0
   -5.2970    5.0071  -20.0729 C   0  0  0  0  0  0  0  0  0  0  0  0
   -8.5357    3.0820  -10.6830 C   0  0  0  0  0  0  0  0  0  0  0  0
   -8.7091    3.0857   -9.3092 C   0  0  0  0  0  0  0  0  0  0  0  0
   -9.4032    2.1408   -8.4395 C   0  0  0  0  0  0  0  0  0  0  0  0
   -9.9872    1.1576   -8.8459 O   0  0  0  0  0  0  0  0  0  0  0  0
  1  2  1  0
  2  3  1  0
  3  4  2  0
  3  5  1  0
  5  6  2  0
  6  7  1  0
  7  8  2  0
  8  9  1  0
  9 10  1  0
 10 11  2  0
 10 12  1  0
 12 13  2  0
 13 14  1  0
 14 15  1  0
 15 16  1  0
 16 17  1  0
 14 18  2  0
 18 19  1  0
 19 20  2  0
 20 21  1  0
 21 22  2  0
 22 23  1  0
 23 24  1  0
 24 25  2  0
 25 26  1  0
 26 27  2  0
 27 28  1  0
 27 29  1  0
 29 30  2  0
  8 31  1  0
 31 32  2  0
 32 33  1  0
 33 34  2  0
 33  2  1  0
 32  5  1  0
 20 12  1  0
 30 24  1  0
 17 15  1  0
 23 19  1  0
M  END
>  <name>  (783) 
P125719

>  <alias>  (783) 
None

>  <smina_score_min>  (783) 
-10.03

>  <exports>  (783) 
['/opt/xchem-fragalysis-2/maxwin/BulkDock/OUTPUTS/openbind_xx01zvns2b_c2_elabs_1LOUTNY.sdf', '/opt/xchem-fragalysis-2/maxwin/BulkDock/OUTPUTS/openbind_xx01zvns2b_c2_elabs_1LSYIIV.sdf']

>  <tags>  (783) 
syndirella_placed,openbind_xx01zvns2b_c2_elabs,openbind_xx01zvns2b_c2_elabs_scored_6.2plus,syndirella_product,openbind_xx01zvns2b_c2_elabs_scored,openbind_xx01zvns2b_c2_elabs_scored_top80percent,BulkDock Fragalysis export

>  <subsites>  (783) 
1 - Z4590/B/203/1

>  <smiles>  (783) 
CN1C(=O)c2ccc(NC(=O)c3cc(C4CC4)nc4c3cnn4-c3ccc(F)cc3)cc2C1=O

>  <HIPPO Pose ID>  (783) 
125719

>  <energy_score>  (783) 
-36.348675

>  <inchikey>  (783) 
NQTFDICPCHAAMB-UHFFFAOYSA-N

>  <gnina_score_min>  (783) 
6.358

>  <gnina_score>  (783) 
6.49

>  <ref_mols>  (783) 
Z3559a

>  <HIPPO Compound ID>  (783) 
187841

>  <distance_score>  (783) 
0.380221

>  <rmsd(smina/fragmenstein)>  (783) 
0.669

>  <ref_pdb>  (783) 
Z3559a

>  <inspiration_score>  (783) 
None

$$$$
P125725
     RDKit          3D

 34 39  0  0  0  0  0  0  0  0999 V2000
   -5.3757   10.6213  -16.6335 C   0  0  0  0  0  0  0  0  0  0  0  0
   -4.1712   10.0297  -17.3393 C   0  0  0  0  0  0  0  0  0  0  0  0
   -4.3555    8.6292  -17.6127 N   0  0  0  0  0  0  0  0  0  0  0  0
   -5.1624    7.9576  -18.5971 C   0  0  0  0  0  0  0  0  0  0  0  0
   -5.9494    8.3915  -19.3915 O   0  0  0  0  0  0  0  0  0  0  0  0
   -4.8573    6.4469  -18.6032 C   0  0  0  0  0  0  0  0  0  0  0  0
   -5.0467    5.8671  -17.2896 N   0  0  0  0  0  0  0  0  0  0  0  0
   -4.1565    6.1422  -16.3054 N   0  0  0  0  0  0  0  0  0  0  0  0
   -4.8564    5.8637  -15.1950 C   0  0  0  0  0  0  0  0  0  0  0  0
   -4.2697    6.0974  -13.7708 C   0  0  0  0  0  0  0  0  0  0  0  0
   -4.1812    7.5112  -13.2541 C   0  0  0  0  0  0  0  0  0  0  0  0
   -2.9272    6.7627  -13.5958 C   0  0  0  0  0  0  0  0  0  0  0  0
   -6.1408    5.3226  -15.4689 C   0  0  0  0  0  0  0  0  0  0  0  0
   -7.3103    4.9239  -14.7960 C   0  0  0  0  0  0  0  0  0  0  0  0
   -7.4857    5.3041  -13.3728 C   0  0  0  0  0  0  0  0  0  0  0  0
   -7.1580    6.4290  -13.1208 O   0  0  0  0  0  0  0  0  0  0  0  0
   -7.9713    4.2560  -12.5221 N   0  0  0  0  0  0  0  0  0  0  0  0
   -8.1225    4.1982  -11.1312 C   0  0  0  0  0  0  0  0  0  0  0  0
   -7.7250    5.2870  -10.3234 C   0  0  0  0  0  0  0  0  0  0  0  0
   -7.8367    5.2491   -8.9274 C   0  0  0  0  0  0  0  0  0  0  0  0
   -8.3793    4.1189   -8.3530 C   0  0  0  0  0  0  0  0  0  0  0  0
   -8.7986    3.0589   -9.1577 C   0  0  0  0  0  0  0  0  0  0  0  0
   -8.6628    3.0558  -10.5382 C   0  0  0  0  0  0  0  0  0  0  0  0
   -9.4114    2.0587   -8.2741 C   0  0  0  0  0  0  0  0  0  0  0  0
   -9.9449    1.0256   -8.6168 O   0  0  0  0  0  0  0  0  0  0  0  0
   -9.3158    2.5420   -6.9854 N   0  0  0  0  0  0  0  0  0  0  0  0
   -8.6363    3.8055   -6.9183 C   0  0  0  0  0  0  0  0  0  0  0  0
   -8.3328    4.3272  -15.5523 C   0  0  0  0  0  0  0  0  0  0  0  0
   -8.1821    4.1720  -16.9365 C   0  0  0  0  0  0  0  0  0  0  0  0
   -9.2078    3.4284  -17.7657 C   0  0  0  0  0  0  0  0  0  0  0  0
  -10.5417    4.0201  -18.1516 C   0  0  0  0  0  0  0  0  0  0  0  0
   -9.4617    3.9127  -19.1760 C   0  0  0  0  0  0  0  0  0  0  0  0
   -7.1109    4.6588  -17.6075 N   0  0  0  0  0  0  0  0  0  0  0  0
   -6.1583    5.2107  -16.8472 C   0  0  0  0  0  0  0  0  0  0  0  0
  1  2  1  0
  2  3  1  0
  3  4  1  0
  4  5  2  0
  4  6  1  0
  6  7  1  0
  7  8  1  0
  8  9  2  0
  9 10  1  0
 10 11  1  0
 11 12  1  0
  9 13  1  0
 13 14  2  0
 14 15  1  0
 15 16  2  0
 15 17  1  0
 17 18  1  0
 18 19  2  0
 19 20  1  0
 20 21  2  0
 21 22  1  0
 22 23  2  0
 22 24  1  0
 24 25  2  0
 24 26  1  0
 26 27  1  0
 14 28  1  0
 28 29  2  0
 29 30  1  0
 30 31  1  0
 31 32  1  0
 29 33  1  0
 33 34  2  0
 34  7  1  0
 12 10  1  0
 34 13  1  0
 23 18  1  0
 32 30  1  0
 27 21  1  0
M  END
>  <name>  (784) 
P125725

>  <alias>  (784) 
None

>  <smina_score_min>  (784) 
-8.634

>  <exports>  (784) 
['/opt/xchem-fragalysis-2/maxwin/BulkDock/OUTPUTS/openbind_xx01zvns2b_c2_elabs_1LOUTNY.sdf', '/opt/xchem-fragalysis-2/maxwin/BulkDock/OUTPUTS/openbind_xx01zvns2b_c2_elabs_1LSYIIV.sdf']

>  <tags>  (784) 
syndirella_placed,openbind_xx01zvns2b_c2_elabs,openbind_xx01zvns2b_c2_elabs_scored_6.2plus,syndirella_product,openbind_xx01zvns2b_c2_elabs_scored,openbind_xx01zvns2b_c2_elabs_scored_top80percent,BulkDock Fragalysis export

>  <subsites>  (784) 
1 - Z4590/B/203/1

>  <smiles>  (784) 
CCNC(=O)Cn1nc(C2CC2)c2c(C(=O)Nc3ccc4c(c3)C(=O)NC4)cc(C3CC3)nc21

>  <HIPPO Pose ID>  (784) 
125725

>  <energy_score>  (784) 
-59.141476

>  <inchikey>  (784) 
FIOXKERQJZDEEM-UHFFFAOYSA-N

>  <gnina_score_min>  (784) 
6.632

>  <gnina_score>  (784) 
6.627

>  <ref_mols>  (784) 
Z3559a

>  <HIPPO Compound ID>  (784) 
187849

>  <distance_score>  (784) 
0.600189

>  <rmsd(smina/fragmenstein)>  (784) 
0.71

>  <ref_pdb>  (784) 
Z3559a

>  <inspiration_score>  (784) 
None

$$$$
P125726
     RDKit          3D

 34 39  0  0  0  0  0  0  0  0999 V2000
   -5.0872   10.7219  -16.0784 C   0  0  0  0  0  0  0  0  0  0  0  0
   -4.1923   10.5388  -17.2881 C   0  0  0  0  0  0  0  0  0  0  0  0
   -4.0912    9.1524  -17.6581 N   0  0  0  0  0  0  0  0  0  0  0  0
   -4.9163    8.3407  -18.5169 C   0  0  0  0  0  0  0  0  0  0  0  0
   -5.8540    8.6332  -19.2062 O   0  0  0  0  0  0  0  0  0  0  0  0
   -4.3809    6.8998  -18.5270 C   0  0  0  0  0  0  0  0  0  0  0  0
   -4.6681    6.2601  -17.2611 N   0  0  0  0  0  0  0  0  0  0  0  0
   -3.9516    6.5900  -16.1585 N   0  0  0  0  0  0  0  0  0  0  0  0
   -4.7515    6.1886  -15.1591 C   0  0  0  0  0  0  0  0  0  0  0  0
   -4.3862    6.4051  -13.6617 C   0  0  0  0  0  0  0  0  0  0  0  0
   -4.8274    7.6720  -12.9759 C   0  0  0  0  0  0  0  0  0  0  0  0
   -3.3751    7.4576  -13.2784 C   0  0  0  0  0  0  0  0  0  0  0  0
   -5.9270    5.5433  -15.6152 C   0  0  0  0  0  0  0  0  0  0  0  0
   -7.1336    5.0316  -15.1178 C   0  0  0  0  0  0  0  0  0  0  0  0
   -7.5397    5.3868  -13.7438 C   0  0  0  0  0  0  0  0  0  0  0  0
   -7.6528    6.5629  -13.5459 O   0  0  0  0  0  0  0  0  0  0  0  0
   -7.7008    4.2705  -12.8645 N   0  0  0  0  0  0  0  0  0  0  0  0
   -7.9479    4.2143  -11.4892 C   0  0  0  0  0  0  0  0  0  0  0  0
   -7.8713    5.3848  -10.7031 C   0  0  0  0  0  0  0  0  0  0  0  0
   -8.0736    5.3450   -9.3207 C   0  0  0  0  0  0  0  0  0  0  0  0
   -8.3814    4.1225   -8.7633 C   0  0  0  0  0  0  0  0  0  0  0  0
   -8.4857    2.9580   -9.5207 C   0  0  0  0  0  0  0  0  0  0  0  0
   -8.2497    2.9848  -10.8894 C   0  0  0  0  0  0  0  0  0  0  0  0
   -8.8569    1.8183   -8.6292 C   0  0  0  0  0  0  0  0  0  0  0  0
   -9.0250    2.4582   -7.3412 N   0  0  0  0  0  0  0  0  0  0  0  0
   -8.6584    3.7852   -7.3620 C   0  0  0  0  0  0  0  0  0  0  0  0
   -8.5604    4.5448   -6.4172 O   0  0  0  0  0  0  0  0  0  0  0  0
   -8.0345    4.4449  -16.0218 C   0  0  0  0  0  0  0  0  0  0  0  0
   -7.7307    4.4156  -17.3938 C   0  0  0  0  0  0  0  0  0  0  0  0
   -8.6554    3.8635  -18.4601 C   0  0  0  0  0  0  0  0  0  0  0  0
   -9.3158    2.5243  -18.2960 C   0  0  0  0  0  0  0  0  0  0  0  0
  -10.1476    3.7784  -18.2995 C   0  0  0  0  0  0  0  0  0  0  0  0
   -6.5968    4.9627  -17.8868 N   0  0  0  0  0  0  0  0  0  0  0  0
   -5.7717    5.5064  -16.9868 C   0  0  0  0  0  0  0  0  0  0  0  0
  1  2  1  0
  2  3  1  0
  3  4  1  0
  4  5  2  0
  4  6  1  0
  6  7  1  0
  7  8  1  0
  8  9  2  0
  9 10  1  0
 10 11  1  0
 11 12  1  0
  9 13  1  0
 13 14  2  0
 14 15  1  0
 15 16  2  0
 15 17  1  0
 17 18  1  0
 18 19  2  0
 19 20  1  0
 20 21  2  0
 21 22  1  0
 22 23  2  0
 22 24  1  0
 24 25  1  0
 25 26  1  0
 26 27  2  0
 14 28  1  0
 28 29  2  0
 29 30  1  0
 30 31  1  0
 31 32  1  0
 29 33  1  0
 33 34  2  0
 34  7  1  0
 12 10  1  0
 34 13  1  0
 23 18  1  0
 32 30  1  0
 26 21  1  0
M  END
>  <name>  (785) 
P125726

>  <alias>  (785) 
None

>  <smina_score_min>  (785) 
-8.938

>  <exports>  (785) 
['/opt/xchem-fragalysis-2/maxwin/BulkDock/OUTPUTS/openbind_xx01zvns2b_c2_elabs_1LOUTNY.sdf', '/opt/xchem-fragalysis-2/maxwin/BulkDock/OUTPUTS/openbind_xx01zvns2b_c2_elabs_1LSYIIV.sdf']

>  <tags>  (785) 
syndirella_placed,openbind_xx01zvns2b_c2_elabs,openbind_xx01zvns2b_c2_elabs_scored_6.2plus,syndirella_product,openbind_xx01zvns2b_c2_elabs_scored,openbind_xx01zvns2b_c2_elabs_scored_top80percent,BulkDock Fragalysis export

>  <subsites>  (785) 
1 - Z4590/B/203/1

>  <smiles>  (785) 
CCNC(=O)Cn1nc(C2CC2)c2c(C(=O)Nc3ccc4c(c3)CNC4=O)cc(C3CC3)nc21

>  <HIPPO Pose ID>  (785) 
125726

>  <energy_score>  (785) 
-67.337932

>  <inchikey>  (785) 
SPBWPKOOIAVGCA-UHFFFAOYSA-N

>  <gnina_score_min>  (785) 
6.643

>  <gnina_score>  (785) 
6.762

>  <ref_mols>  (785) 
Z3559a

>  <HIPPO Compound ID>  (785) 
187850

>  <distance_score>  (785) 
0.785275

>  <rmsd(smina/fragmenstein)>  (785) 
0.728

>  <ref_pdb>  (785) 
Z3559a

>  <inspiration_score>  (785) 
None

$$$$
P125727
     RDKit          3D

 34 39  0  0  0  0  0  0  0  0999 V2000
   -5.0204    7.5981  -23.4929 C   0  0  0  0  0  0  0  0  0  0  0  0
   -4.6323    8.1409  -22.1329 C   0  0  0  0  0  0  0  0  0  0  0  0
   -4.6335    7.1064  -21.1324 N   0  0  0  0  0  0  0  0  0  0  0  0
   -5.2527    7.0843  -19.6964 C   0  0  0  0  0  0  0  0  0  0  0  0
   -5.9185    7.8745  -19.1458 O   0  0  0  0  0  0  0  0  0  0  0  0
   -4.8233    5.7393  -19.1009 C   0  0  0  0  0  0  0  0  0  0  0  0
   -5.0884    5.6463  -17.6811 N   0  0  0  0  0  0  0  0  0  0  0  0
   -4.1631    6.0534  -16.7822 N   0  0  0  0  0  0  0  0  0  0  0  0
   -4.8066    5.9203  -15.6134 C   0  0  0  0  0  0  0  0  0  0  0  0
   -4.1542    6.3539  -14.2717 C   0  0  0  0  0  0  0  0  0  0  0  0
   -3.9359    5.3445  -13.1737 C   0  0  0  0  0  0  0  0  0  0  0  0
   -2.7630    5.8699  -13.9458 C   0  0  0  0  0  0  0  0  0  0  0  0
   -6.1018    5.3666  -15.7499 C   0  0  0  0  0  0  0  0  0  0  0  0
   -7.2162    5.0395  -14.9675 C   0  0  0  0  0  0  0  0  0  0  0  0
   -7.3063    5.4807  -13.5599 C   0  0  0  0  0  0  0  0  0  0  0  0
   -7.0527    6.5954  -13.3216 O   0  0  0  0  0  0  0  0  0  0  0  0
   -7.8027    4.3460  -12.6343 N   0  0  0  0  0  0  0  0  0  0  0  0
   -7.9933    4.3218  -11.2525 C   0  0  0  0  0  0  0  0  0  0  0  0
   -7.8058    5.4829  -10.4841 C   0  0  0  0  0  0  0  0  0  0  0  0
   -8.0055    5.4700   -9.1009 C   0  0  0  0  0  0  0  0  0  0  0  0
   -8.4008    4.2858   -8.5083 C   0  0  0  0  0  0  0  0  0  0  0  0
   -8.5936    3.1336   -9.2644 C   0  0  0  0  0  0  0  0  0  0  0  0
   -8.3899    3.1299  -10.6378 C   0  0  0  0  0  0  0  0  0  0  0  0
   -9.0498    2.0230   -8.3700 C   0  0  0  0  0  0  0  0  0  0  0  0
   -8.9785    2.5680   -6.9954 N   0  0  0  0  0  0  0  0  0  0  0  0
  -10.1170    2.2186   -6.1707 C   0  0  0  0  0  0  0  0  0  0  0  0
   -8.7142    4.0099   -7.0743 C   0  0  0  0  0  0  0  0  0  0  0  0
   -8.3255    4.4661  -15.6033 C   0  0  0  0  0  0  0  0  0  0  0  0
   -8.3145    4.2580  -16.9865 C   0  0  0  0  0  0  0  0  0  0  0  0
   -9.5651    3.7622  -17.6793 C   0  0  0  0  0  0  0  0  0  0  0  0
   -9.7615    3.9689  -19.1607 C   0  0  0  0  0  0  0  0  0  0  0  0
   -9.4853    2.5946  -18.6306 C   0  0  0  0  0  0  0  0  0  0  0  0
   -7.2480    4.5728  -17.7593 N   0  0  0  0  0  0  0  0  0  0  0  0
   -6.2158    5.1302  -17.1087 C   0  0  0  0  0  0  0  0  0  0  0  0
  1  2  1  0
  2  3  1  0
  3  4  1  0
  4  5  2  0
  4  6  1  0
  6  7  1  0
  7  8  1  0
  8  9  2  0
  9 10  1  0
 10 11  1  0
 11 12  1  0
  9 13  1  0
 13 14  2  0
 14 15  1  0
 15 16  2  0
 15 17  1  0
 17 18  1  0
 18 19  2  0
 19 20  1  0
 20 21  2  0
 21 22  1  0
 22 23  2  0
 22 24  1  0
 24 25  1  0
 25 26  1  0
 25 27  1  0
 14 28  1  0
 28 29  2  0
 29 30  1  0
 30 31  1  0
 31 32  1  0
 29 33  1  0
 33 34  2  0
 34  7  1  0
 12 10  1  0
 34 13  1  0
 23 18  1  0
 32 30  1  0
 27 21  1  0
M  END
>  <name>  (786) 
P125727

>  <alias>  (786) 
None

>  <smina_score_min>  (786) 
-8.938

>  <exports>  (786) 
['/opt/xchem-fragalysis-2/maxwin/BulkDock/OUTPUTS/openbind_xx01zvns2b_c2_elabs_1LOUTNY.sdf', '/opt/xchem-fragalysis-2/maxwin/BulkDock/OUTPUTS/openbind_xx01zvns2b_c2_elabs_1LSYIIV.sdf']

>  <tags>  (786) 
syndirella_placed,openbind_xx01zvns2b_c2_elabs,openbind_xx01zvns2b_c2_elabs_scored_6.2plus,syndirella_product,openbind_xx01zvns2b_c2_elabs_scored,openbind_xx01zvns2b_c2_elabs_scored_top80percent,BulkDock Fragalysis export

>  <subsites>  (786) 
1 - Z4590/B/203/1

>  <smiles>  (786) 
CCNC(=O)Cn1nc(C2CC2)c2c(C(=O)Nc3ccc4c(c3)CN(C)C4)cc(C3CC3)nc21

>  <HIPPO Pose ID>  (786) 
125727

>  <energy_score>  (786) 
-57.080408

>  <inchikey>  (786) 
OCWFRPRZVUNEBH-UHFFFAOYSA-N

>  <gnina_score_min>  (786) 
6.781

>  <gnina_score>  (786) 
6.816

>  <ref_mols>  (786) 
Z3559a

>  <HIPPO Compound ID>  (786) 
187851

>  <distance_score>  (786) 
0.379296

>  <rmsd(smina/fragmenstein)>  (786) 
0.458

>  <ref_pdb>  (786) 
Z3559a

>  <inspiration_score>  (786) 
None

$$$$
P125728
     RDKit          3D

 34 39  0  0  0  0  0  0  0  0999 V2000
   -4.0764    6.1652  -14.2032 C   0  0  0  0  0  0  0  0  0  0  0  0
   -4.7209    5.7648  -15.4808 C   0  0  0  0  0  0  0  0  0  0  0  0
   -4.0072    5.8214  -16.6087 N   0  0  0  0  0  0  0  0  0  0  0  0
   -4.8560    5.3803  -17.5889 N   0  0  0  0  0  0  0  0  0  0  0  0
   -4.4126    5.3288  -18.9497 C   0  0  0  0  0  0  0  0  0  0  0  0
   -3.0712    5.6060  -19.2283 C   0  0  0  0  0  0  0  0  0  0  0  0
   -2.6226    5.5373  -20.5467 C   0  0  0  0  0  0  0  0  0  0  0  0
   -3.5213    5.2222  -21.5563 C   0  0  0  0  0  0  0  0  0  0  0  0
   -4.8342    4.9728  -21.2011 C   0  0  0  0  0  0  0  0  0  0  0  0
   -5.2882    4.9993  -19.9301 N   0  0  0  0  0  0  0  0  0  0  0  0
   -6.0963    5.0276  -17.0667 C   0  0  0  0  0  0  0  0  0  0  0  0
   -7.1620    4.5275  -17.7237 N   0  0  0  0  0  0  0  0  0  0  0  0
   -8.2656    4.2701  -16.9871 C   0  0  0  0  0  0  0  0  0  0  0  0
   -9.5144    3.7966  -17.7039 C   0  0  0  0  0  0  0  0  0  0  0  0
   -9.4473    2.6080  -18.6298 C   0  0  0  0  0  0  0  0  0  0  0  0
   -9.6625    3.9795  -19.1935 C   0  0  0  0  0  0  0  0  0  0  0  0
   -8.3100    4.4947  -15.6111 C   0  0  0  0  0  0  0  0  0  0  0  0
   -7.1944    5.0197  -14.9548 C   0  0  0  0  0  0  0  0  0  0  0  0
   -7.2643    5.4213  -13.5331 C   0  0  0  0  0  0  0  0  0  0  0  0
   -6.8721    6.4852  -13.2549 O   0  0  0  0  0  0  0  0  0  0  0  0
   -7.8575    4.3070  -12.6406 N   0  0  0  0  0  0  0  0  0  0  0  0
   -7.9990    4.2356  -11.2553 C   0  0  0  0  0  0  0  0  0  0  0  0
   -7.6031    5.3217  -10.4436 C   0  0  0  0  0  0  0  0  0  0  0  0
   -7.7545    5.2839   -9.0539 C   0  0  0  0  0  0  0  0  0  0  0  0
   -8.3154    4.1469   -8.5147 C   0  0  0  0  0  0  0  0  0  0  0  0
   -8.7124    3.0856   -9.3050 C   0  0  0  0  0  0  0  0  0  0  0  0
   -8.5572    3.0901  -10.6809 C   0  0  0  0  0  0  0  0  0  0  0  0
   -9.3937    2.1331   -8.4332 C   0  0  0  0  0  0  0  0  0  0  0  0
   -9.9765    1.1487   -8.8383 O   0  0  0  0  0  0  0  0  0  0  0  0
   -9.3280    2.6422   -7.1653 N   0  0  0  0  0  0  0  0  0  0  0  0
  -10.0587    2.0834   -6.0583 C   0  0  0  0  0  0  0  0  0  0  0  0
   -8.7102    3.8579   -7.1379 C   0  0  0  0  0  0  0  0  0  0  0  0
   -8.5477    4.6334   -6.2123 O   0  0  0  0  0  0  0  0  0  0  0  0
   -6.0360    5.2854  -15.7040 C   0  0  0  0  0  0  0  0  0  0  0  0
  1  2  1  0
  2  3  2  0
  3  4  1  0
  4  5  1  0
  5  6  2  0
  6  7  1  0
  7  8  2  0
  8  9  1  0
  9 10  2  0
  4 11  1  0
 11 12  2  0
 12 13  1  0
 13 14  1  0
 14 15  1  0
 15 16  1  0
 13 17  2  0
 17 18  1  0
 18 19  1  0
 19 20  2  0
 19 21  1  0
 21 22  1  0
 22 23  2  0
 23 24  1  0
 24 25  2  0
 25 26  1  0
 26 27  2  0
 26 28  1  0
 28 29  2  0
 28 30  1  0
 30 31  1  0
 30 32  1  0
 32 33  2  0
 18 34  2  0
 34  2  1  0
 10  5  1  0
 34 11  1  0
 16 14  1  0
 27 22  1  0
 32 25  1  0
M  END
>  <name>  (787) 
P125728

>  <alias>  (787) 
None

>  <smina_score_min>  (787) 
-10.013

>  <exports>  (787) 
['/opt/xchem-fragalysis-2/maxwin/BulkDock/OUTPUTS/openbind_xx01zvns2b_c2_elabs_1LOUTNY.sdf', '/opt/xchem-fragalysis-2/maxwin/BulkDock/OUTPUTS/openbind_xx01zvns2b_c2_elabs_1LSYIIV.sdf']

>  <tags>  (787) 
syndirella_placed,openbind_xx01zvns2b_c2_elabs,openbind_xx01zvns2b_c2_elabs_scored_6.2plus,syndirella_product,openbind_xx01zvns2b_c2_elabs_scored,openbind_xx01zvns2b_c2_elabs_scored_top80percent,BulkDock Fragalysis export

>  <subsites>  (787) 
1 - Z4590/B/203/1

>  <smiles>  (787) 
Cc1nn(-c2ccccn2)c2nc(C3CC3)cc(C(=O)Nc3ccc4c(c3)C(=O)N(C)C4=O)c12

>  <HIPPO Pose ID>  (787) 
125728

>  <energy_score>  (787) 
-42.633807

>  <inchikey>  (787) 
VWTYYIUIXIDMBR-UHFFFAOYSA-N

>  <gnina_score_min>  (787) 
6.351

>  <gnina_score>  (787) 
6.541

>  <ref_mols>  (787) 
Z3559a

>  <HIPPO Compound ID>  (787) 
187854

>  <distance_score>  (787) 
0.390484

>  <rmsd(smina/fragmenstein)>  (787) 
0.969

>  <ref_pdb>  (787) 
Z3559a

>  <inspiration_score>  (787) 
None

$$$$
P125729
     RDKit          3D

 34 39  0  0  0  0  0  0  0  0999 V2000
  -10.8483    2.9603   -5.4551 C   0  0  0  0  0  0  0  0  0  0  0  0
   -9.6119    2.3045   -6.0355 C   0  0  0  0  0  0  0  0  0  0  0  0
   -9.1934    2.9236   -7.2651 N   0  0  0  0  0  0  0  0  0  0  0  0
   -9.1481    2.1972   -8.5254 C   0  0  0  0  0  0  0  0  0  0  0  0
   -8.5653    3.2169   -9.4471 C   0  0  0  0  0  0  0  0  0  0  0  0
   -8.3576    3.1699  -10.8149 C   0  0  0  0  0  0  0  0  0  0  0  0
   -7.7828    4.2900  -11.4299 C   0  0  0  0  0  0  0  0  0  0  0  0
   -7.5536    4.2661  -12.8018 N   0  0  0  0  0  0  0  0  0  0  0  0
   -6.9946    5.3558  -13.7457 C   0  0  0  0  0  0  0  0  0  0  0  0
   -6.5672    6.4165  -13.5082 O   0  0  0  0  0  0  0  0  0  0  0  0
   -7.0675    4.9521  -15.1645 C   0  0  0  0  0  0  0  0  0  0  0  0
   -8.2278    4.3953  -15.7176 C   0  0  0  0  0  0  0  0  0  0  0  0
   -8.3188    4.2021  -17.0985 C   0  0  0  0  0  0  0  0  0  0  0  0
   -9.6118    3.7261  -17.7120 C   0  0  0  0  0  0  0  0  0  0  0  0
   -9.5923    2.5539  -18.6598 C   0  0  0  0  0  0  0  0  0  0  0  0
   -9.8912    3.9283  -19.1799 C   0  0  0  0  0  0  0  0  0  0  0  0
   -7.3080    4.5070  -17.9399 N   0  0  0  0  0  0  0  0  0  0  0  0
   -6.2230    5.0467  -17.3729 C   0  0  0  0  0  0  0  0  0  0  0  0
   -6.0276    5.3031  -16.0325 C   0  0  0  0  0  0  0  0  0  0  0  0
   -4.7689    5.9366  -15.9824 C   0  0  0  0  0  0  0  0  0  0  0  0
   -4.2275    6.1215  -17.1939 N   0  0  0  0  0  0  0  0  0  0  0  0
   -5.1261    5.5372  -18.0346 N   0  0  0  0  0  0  0  0  0  0  0  0
   -5.0897    5.7354  -19.4796 C   0  0  0  0  0  0  0  0  0  0  0  0
   -3.7902    5.4609  -20.1383 C   0  0  0  0  0  0  0  0  0  0  0  0
   -2.4630    5.5334  -19.7697 C   0  0  0  0  0  0  0  0  0  0  0  0
   -1.7054    5.2144  -20.9213 C   0  0  0  0  0  0  0  0  0  0  0  0
   -2.6100    4.9517  -21.9237 C   0  0  0  0  0  0  0  0  0  0  0  0
   -2.4787    4.5664  -23.3408 C   0  0  0  0  0  0  0  0  0  0  0  0
   -3.8778    5.0981  -21.4558 O   0  0  0  0  0  0  0  0  0  0  0  0
   -7.4348    5.4286  -10.6767 C   0  0  0  0  0  0  0  0  0  0  0  0
   -7.6510    5.4717   -9.3020 C   0  0  0  0  0  0  0  0  0  0  0  0
   -8.2099    4.3548   -8.7230 C   0  0  0  0  0  0  0  0  0  0  0  0
   -8.5622    4.1466   -7.3203 C   0  0  0  0  0  0  0  0  0  0  0  0
   -8.3328    4.9360   -6.4222 O   0  0  0  0  0  0  0  0  0  0  0  0
  1  2  1  0
  2  3  1  0
  3  4  1  0
  4  5  1  0
  5  6  2  0
  6  7  1  0
  7  8  1  0
  8  9  1  0
  9 10  2  0
  9 11  1  0
 11 12  2  0
 12 13  1  0
 13 14  1  0
 14 15  1  0
 15 16  1  0
 13 17  2  0
 17 18  1  0
 18 19  2  0
 19 20  1  0
 20 21  2  0
 21 22  1  0
 22 23  1  0
 23 24  1  0
 24 25  2  0
 25 26  1  0
 26 27  2  0
 27 28  1  0
 27 29  1  0
  7 30  2  0
 30 31  1  0
 31 32  2  0
 32 33  1  0
 33 34  2  0
 33  3  1  0
 32  5  1  0
 19 11  1  0
 29 24  1  0
 16 14  1  0
 22 18  1  0
M  END
>  <name>  (788) 
P125729

>  <alias>  (788) 
None

>  <smina_score_min>  (788) 
-9.75

>  <exports>  (788) 
['/opt/xchem-fragalysis-2/maxwin/BulkDock/OUTPUTS/openbind_xx01zvns2b_c2_elabs_1LOUTNY.sdf', '/opt/xchem-fragalysis-2/maxwin/BulkDock/OUTPUTS/openbind_xx01zvns2b_c2_elabs_1LSYIIV.sdf']

>  <tags>  (788) 
syndirella_placed,openbind_xx01zvns2b_c2_elabs,openbind_xx01zvns2b_c2_elabs_scored_6.2plus,syndirella_product,openbind_xx01zvns2b_c2_elabs_scored,openbind_xx01zvns2b_c2_elabs_scored_top80percent,BulkDock Fragalysis export

>  <subsites>  (788) 
1 - Z4590/B/203/1

>  <smiles>  (788) 
CCN1Cc2cc(NC(=O)c3cc(C4CC4)nc4c3cnn4Cc3ccc(C)o3)ccc2C1=O

>  <HIPPO Pose ID>  (788) 
125729

>  <energy_score>  (788) 
-24.616082

>  <inchikey>  (788) 
VRKOXEWRUULXGA-UHFFFAOYSA-N

>  <gnina_score_min>  (788) 
6.562

>  <gnina_score>  (788) 
6.481

>  <ref_mols>  (788) 
Z3559a

>  <HIPPO Compound ID>  (788) 
187856

>  <distance_score>  (788) 
0.485177

>  <rmsd(smina/fragmenstein)>  (788) 
0.405

>  <ref_pdb>  (788) 
Z3559a

>  <inspiration_score>  (788) 
None

$$$$
P125730
     RDKit          3D

 34 39  0  0  0  0  0  0  0  0999 V2000
  -10.6707    2.6892   -5.3723 C   0  0  0  0  0  0  0  0  0  0  0  0
   -9.8692    1.9258   -6.4030 C   0  0  0  0  0  0  0  0  0  0  0  0
   -9.4523    2.7547   -7.5031 N   0  0  0  0  0  0  0  0  0  0  0  0
   -8.6280    3.9351   -7.3400 C   0  0  0  0  0  0  0  0  0  0  0  0
   -8.2405    4.2478   -8.7450 C   0  0  0  0  0  0  0  0  0  0  0  0
   -7.5594    5.3260   -9.2693 C   0  0  0  0  0  0  0  0  0  0  0  0
   -7.3377    5.3513  -10.6535 C   0  0  0  0  0  0  0  0  0  0  0  0
   -7.7836    4.3045  -11.4839 C   0  0  0  0  0  0  0  0  0  0  0  0
   -7.5681    4.3161  -12.8544 N   0  0  0  0  0  0  0  0  0  0  0  0
   -6.8711    5.3613  -13.7510 C   0  0  0  0  0  0  0  0  0  0  0  0
   -6.3010    6.3399  -13.4692 O   0  0  0  0  0  0  0  0  0  0  0  0
   -6.9941    5.0025  -15.1845 C   0  0  0  0  0  0  0  0  0  0  0  0
   -8.1676    4.4529  -15.7250 C   0  0  0  0  0  0  0  0  0  0  0  0
   -8.2768    4.2399  -17.1016 C   0  0  0  0  0  0  0  0  0  0  0  0
   -9.5749    3.7447  -17.6914 C   0  0  0  0  0  0  0  0  0  0  0  0
   -9.8915    3.9567  -19.1504 C   0  0  0  0  0  0  0  0  0  0  0  0
   -9.5574    2.5823  -18.6523 C   0  0  0  0  0  0  0  0  0  0  0  0
   -7.2746    4.5338  -17.9542 N   0  0  0  0  0  0  0  0  0  0  0  0
   -6.1798    5.0716  -17.4056 C   0  0  0  0  0  0  0  0  0  0  0  0
   -5.9653    5.3393  -16.0701 C   0  0  0  0  0  0  0  0  0  0  0  0
   -4.6968    5.9527  -16.0416 C   0  0  0  0  0  0  0  0  0  0  0  0
   -4.1667    6.1173  -17.2606 N   0  0  0  0  0  0  0  0  0  0  0  0
   -5.0805    5.5317  -18.0853 N   0  0  0  0  0  0  0  0  0  0  0  0
   -5.0429    5.6715  -19.5383 C   0  0  0  0  0  0  0  0  0  0  0  0
   -3.7225    5.4568  -20.1814 C   0  0  0  0  0  0  0  0  0  0  0  0
   -2.4014    5.5660  -19.7980 C   0  0  0  0  0  0  0  0  0  0  0  0
   -1.6209    5.2789  -20.9434 C   0  0  0  0  0  0  0  0  0  0  0  0
   -2.5060    4.9977  -21.9577 C   0  0  0  0  0  0  0  0  0  0  0  0
   -2.3507    4.6226  -23.3753 C   0  0  0  0  0  0  0  0  0  0  0  0
   -3.7818    5.1068  -21.5036 O   0  0  0  0  0  0  0  0  0  0  0  0
   -8.4733    3.2235  -10.9497 C   0  0  0  0  0  0  0  0  0  0  0  0
   -8.6895    3.2358   -9.5899 C   0  0  0  0  0  0  0  0  0  0  0  0
   -9.4433    2.2762   -8.7970 C   0  0  0  0  0  0  0  0  0  0  0  0
   -9.9724    1.2830   -9.2469 O   0  0  0  0  0  0  0  0  0  0  0  0
  1  2  1  0
  2  3  1  0
  3  4  1  0
  4  5  1  0
  5  6  2  0
  6  7  1  0
  7  8  2  0
  8  9  1  0
  9 10  1  0
 10 11  2  0
 10 12  1  0
 12 13  2  0
 13 14  1  0
 14 15  1  0
 15 16  1  0
 16 17  1  0
 14 18  2  0
 18 19  1  0
 19 20  2  0
 20 21  1  0
 21 22  2  0
 22 23  1  0
 23 24  1  0
 24 25  1  0
 25 26  2  0
 26 27  1  0
 27 28  2  0
 28 29  1  0
 28 30  1  0
  8 31  1  0
 31 32  2  0
 32 33  1  0
 33 34  2  0
 33  3  1  0
 32  5  1  0
 20 12  1  0
 30 25  1  0
 17 15  1  0
 23 19  1  0
M  END
>  <name>  (789) 
P125730

>  <alias>  (789) 
None

>  <smina_score_min>  (789) 
-9.309

>  <exports>  (789) 
['/opt/xchem-fragalysis-2/maxwin/BulkDock/OUTPUTS/openbind_xx01zvns2b_c2_elabs_1LOUTNY.sdf', '/opt/xchem-fragalysis-2/maxwin/BulkDock/OUTPUTS/openbind_xx01zvns2b_c2_elabs_1LSYIIV.sdf']

>  <tags>  (789) 
syndirella_placed,openbind_xx01zvns2b_c2_elabs,openbind_xx01zvns2b_c2_elabs_scored_6.2plus,syndirella_product,openbind_xx01zvns2b_c2_elabs_scored,openbind_xx01zvns2b_c2_elabs_scored_top80percent,BulkDock Fragalysis export

>  <subsites>  (789) 
1 - Z4590/B/203/1

>  <smiles>  (789) 
CCN1Cc2ccc(NC(=O)c3cc(C4CC4)nc4c3cnn4Cc3ccc(C)o3)cc2C1=O

>  <HIPPO Pose ID>  (789) 
125730

>  <energy_score>  (789) 
-44.577096

>  <inchikey>  (789) 
MMCJBVRCKBYNFX-UHFFFAOYSA-N

>  <gnina_score_min>  (789) 
6.434

>  <gnina_score>  (789) 
6.487

>  <ref_mols>  (789) 
Z3559a

>  <HIPPO Compound ID>  (789) 
187859

>  <distance_score>  (789) 
0.515129

>  <rmsd(smina/fragmenstein)>  (789) 
0.466

>  <ref_pdb>  (789) 
Z3559a

>  <inspiration_score>  (789) 
None

$$$$
P125731
     RDKit          3D

 34 39  0  0  0  0  0  0  0  0999 V2000
   -8.7919    3.9986   -3.7120 C   0  0  0  0  0  0  0  0  0  0  0  0
  -10.0070    4.0517   -4.6198 C   0  0  0  0  0  0  0  0  0  0  0  0
   -9.9151    3.1775   -5.8815 C   0  0  0  0  0  0  0  0  0  0  0  0
   -8.8084    3.4815   -6.7870 N   0  0  0  0  0  0  0  0  0  0  0  0
   -8.5683    4.9035   -7.0551 C   0  0  0  0  0  0  0  0  0  0  0  0
   -8.1824    4.9803   -8.4921 C   0  0  0  0  0  0  0  0  0  0  0  0
   -7.7287    6.0781   -9.1937 C   0  0  0  0  0  0  0  0  0  0  0  0
   -7.4914    5.9287  -10.5582 C   0  0  0  0  0  0  0  0  0  0  0  0
   -7.7165    4.7012  -11.2089 C   0  0  0  0  0  0  0  0  0  0  0  0
   -7.4844    4.5917  -12.5835 N   0  0  0  0  0  0  0  0  0  0  0  0
   -6.9776    5.5447  -13.5324 C   0  0  0  0  0  0  0  0  0  0  0  0
   -6.5492    6.6538  -13.3770 O   0  0  0  0  0  0  0  0  0  0  0  0
   -6.9895    5.0858  -14.9388 C   0  0  0  0  0  0  0  0  0  0  0  0
   -8.1232    4.5294  -15.5417 C   0  0  0  0  0  0  0  0  0  0  0  0
   -8.1404    4.2953  -16.9246 C   0  0  0  0  0  0  0  0  0  0  0  0
   -9.4131    3.7886  -17.5772 C   0  0  0  0  0  0  0  0  0  0  0  0
   -9.6980    4.0627  -19.0338 C   0  0  0  0  0  0  0  0  0  0  0  0
   -9.3552    2.6727  -18.5926 C   0  0  0  0  0  0  0  0  0  0  0  0
   -7.0804    4.5739  -17.7252 N   0  0  0  0  0  0  0  0  0  0  0  0
   -6.0138    5.1026  -17.1049 C   0  0  0  0  0  0  0  0  0  0  0  0
   -5.8866    5.3668  -15.7545 C   0  0  0  0  0  0  0  0  0  0  0  0
   -4.5842    5.8918  -15.6189 C   0  0  0  0  0  0  0  0  0  0  0  0
   -3.9089    5.9119  -16.7732 N   0  0  0  0  0  0  0  0  0  0  0  0
   -4.8403    5.5144  -17.6833 N   0  0  0  0  0  0  0  0  0  0  0  0
   -4.5059    5.4304  -19.0957 C   0  0  0  0  0  0  0  0  0  0  0  0
   -4.5793    6.7387  -19.7997 C   0  0  0  0  0  0  0  0  0  0  0  0
   -5.0554    7.0992  -21.0441 C   0  0  0  0  0  0  0  0  0  0  0  0
   -4.7785    8.4788  -21.2017 C   0  0  0  0  0  0  0  0  0  0  0  0
   -4.1519    8.8806  -20.0436 C   0  0  0  0  0  0  0  0  0  0  0  0
   -3.6050   10.1668  -19.5709 C   0  0  0  0  0  0  0  0  0  0  0  0
   -4.0217    7.8269  -19.1931 O   0  0  0  0  0  0  0  0  0  0  0  0
   -8.1788    3.5964  -10.4797 C   0  0  0  0  0  0  0  0  0  0  0  0
   -8.4000    3.7536   -9.1147 C   0  0  0  0  0  0  0  0  0  0  0  0
   -8.9274    2.7797   -8.0988 C   0  0  0  0  0  0  0  0  0  0  0  0
  1  2  1  0
  2  3  1  0
  3  4  1  0
  4  5  1  0
  5  6  1  0
  6  7  2  0
  7  8  1  0
  8  9  2  0
  9 10  1  0
 10 11  1  0
 11 12  2  0
 11 13  1  0
 13 14  2  0
 14 15  1  0
 15 16  1  0
 16 17  1  0
 17 18  1  0
 15 19  2  0
 19 20  1  0
 20 21  2  0
 21 22  1  0
 22 23  2  0
 23 24  1  0
 24 25  1  0
 25 26  1  0
 26 27  2  0
 27 28  1  0
 28 29  2  0
 29 30  1  0
 29 31  1  0
  9 32  1  0
 32 33  2  0
 33 34  1  0
 34  4  1  0
 33  6  1  0
 21 13  1  0
 31 26  1  0
 18 16  1  0
 24 20  1  0
M  END
>  <name>  (790) 
P125731

>  <alias>  (790) 
None

>  <smina_score_min>  (790) 
-9.271

>  <exports>  (790) 
['/opt/xchem-fragalysis-2/maxwin/BulkDock/OUTPUTS/openbind_xx01zvns2b_c2_elabs_1LOUTNY.sdf', '/opt/xchem-fragalysis-2/maxwin/BulkDock/OUTPUTS/openbind_xx01zvns2b_c2_elabs_1LSYIIV.sdf']

>  <tags>  (790) 
syndirella_placed,openbind_xx01zvns2b_c2_elabs,openbind_xx01zvns2b_c2_elabs_scored_6.2plus,syndirella_product,openbind_xx01zvns2b_c2_elabs_scored,openbind_xx01zvns2b_c2_elabs_scored_top80percent,BulkDock Fragalysis export

>  <subsites>  (790) 
1 - Z4590/B/203/1

>  <smiles>  (790) 
CCCN1Cc2ccc(NC(=O)c3cc(C4CC4)nc4c3cnn4Cc3ccc(C)o3)cc2C1

>  <HIPPO Pose ID>  (790) 
125731

>  <energy_score>  (790) 
-65.308513

>  <inchikey>  (790) 
PFLRLQZRDJTAET-UHFFFAOYSA-N

>  <gnina_score_min>  (790) 
6.522

>  <gnina_score>  (790) 
6.357

>  <ref_mols>  (790) 
Z3559a

>  <HIPPO Compound ID>  (790) 
187860

>  <distance_score>  (790) 
0.746102

>  <rmsd(smina/fragmenstein)>  (790) 
1.094

>  <ref_pdb>  (790) 
Z3559a

>  <inspiration_score>  (790) 
None

$$$$
P125732
     RDKit          3D

 34 39  0  0  0  0  0  0  0  0999 V2000
  -10.2864    3.0913   -4.9872 C   0  0  0  0  0  0  0  0  0  0  0  0
  -10.1616    2.3781   -6.3267 C   0  0  0  0  0  0  0  0  0  0  0  0
   -8.9603    2.7035   -7.0823 N   0  0  0  0  0  0  0  0  0  0  0  0
   -8.6645    4.1337   -7.2173 C   0  0  0  0  0  0  0  0  0  0  0  0
   -8.3188    4.3490   -8.6500 C   0  0  0  0  0  0  0  0  0  0  0  0
   -7.9161    5.5170   -9.2649 C   0  0  0  0  0  0  0  0  0  0  0  0
   -7.6780    5.4850  -10.6374 C   0  0  0  0  0  0  0  0  0  0  0  0
   -7.8415    4.2996  -11.3755 C   0  0  0  0  0  0  0  0  0  0  0  0
   -7.5669    4.2938  -12.7429 N   0  0  0  0  0  0  0  0  0  0  0  0
   -7.0894    5.4298  -13.6756 C   0  0  0  0  0  0  0  0  0  0  0  0
   -6.7772    6.5284  -13.4319 O   0  0  0  0  0  0  0  0  0  0  0  0
   -7.0170    5.0117  -15.0910 C   0  0  0  0  0  0  0  0  0  0  0  0
   -8.1210    4.4466  -15.7291 C   0  0  0  0  0  0  0  0  0  0  0  0
   -8.1251    4.3070  -17.1217 C   0  0  0  0  0  0  0  0  0  0  0  0
   -9.3929    3.7959  -17.7800 C   0  0  0  0  0  0  0  0  0  0  0  0
   -9.3473    2.5918  -18.6843 C   0  0  0  0  0  0  0  0  0  0  0  0
   -9.6207    3.9483  -19.2595 C   0  0  0  0  0  0  0  0  0  0  0  0
   -7.0821    4.7040  -17.9064 N   0  0  0  0  0  0  0  0  0  0  0  0
   -6.0315    5.2253  -17.2464 C   0  0  0  0  0  0  0  0  0  0  0  0
   -5.9130    5.3818  -15.8725 C   0  0  0  0  0  0  0  0  0  0  0  0
   -4.6226    5.9409  -15.6815 C   0  0  0  0  0  0  0  0  0  0  0  0
   -3.9326    6.2826  -14.4115 C   0  0  0  0  0  0  0  0  0  0  0  0
   -4.0019    6.1655  -16.8458 N   0  0  0  0  0  0  0  0  0  0  0  0
   -4.8963    5.7829  -17.7827 N   0  0  0  0  0  0  0  0  0  0  0  0
   -4.5902    6.1233  -19.1565 C   0  0  2  0  0  0  0  0  0  0  0  0
   -5.6093    7.0304  -19.8478 C   0  0  0  0  0  0  0  0  0  0  0  0
   -5.1210    7.1829  -21.2879 C   0  0  0  0  0  0  0  0  0  0  0  0
   -4.3427    5.6341  -21.7082 S   0  0  0  0  0  0  0  0  0  0  0  0
   -2.9618    5.9086  -22.0502 O   0  0  0  0  0  0  0  0  0  0  0  0
   -5.1955    4.8590  -22.5839 O   0  0  0  0  0  0  0  0  0  0  0  0
   -4.3870    4.9391  -20.0760 C   0  0  0  0  0  0  0  0  0  0  0  0
   -8.2628    3.1271  -10.7384 C   0  0  0  0  0  0  0  0  0  0  0  0
   -8.4946    3.1716   -9.3691 C   0  0  0  0  0  0  0  0  0  0  0  0
   -8.9609    2.0930   -8.4390 C   0  0  0  0  0  0  0  0  0  0  0  0
  1  2  1  0
  2  3  1  0
  3  4  1  0
  4  5  1  0
  5  6  2  0
  6  7  1  0
  7  8  2  0
  8  9  1  0
  9 10  1  0
 10 11  2  0
 10 12  1  0
 12 13  2  0
 13 14  1  0
 14 15  1  0
 15 16  1  0
 16 17  1  0
 14 18  2  0
 18 19  1  0
 19 20  2  0
 20 21  1  0
 21 22  1  0
 21 23  2  0
 23 24  1  0
 25 24  1  1
 25 26  1  0
 26 27  1  0
 27 28  1  0
 28 29  2  0
 28 30  2  0
 28 31  1  0
  8 32  1  0
 32 33  2  0
 33 34  1  0
 34  3  1  0
 33  5  1  0
 20 12  1  0
 31 25  1  0
 17 15  1  0
 24 19  1  0
M  END
>  <name>  (791) 
P125732

>  <alias>  (791) 
None

>  <smina_score_min>  (791) 
-9.694

>  <exports>  (791) 
['/opt/xchem-fragalysis-2/maxwin/BulkDock/OUTPUTS/openbind_xx01zvns2b_c2_elabs_1LOUTNY.sdf', '/opt/xchem-fragalysis-2/maxwin/BulkDock/OUTPUTS/openbind_xx01zvns2b_c2_elabs_1LSYIIV.sdf']

>  <tags>  (791) 
syndirella_placed,openbind_xx01zvns2b_c2_elabs,openbind_xx01zvns2b_c2_elabs_scored_6.2plus,syndirella_product,openbind_xx01zvns2b_c2_elabs_scored,openbind_xx01zvns2b_c2_elabs_scored_top80percent,BulkDock Fragalysis export

>  <subsites>  (791) 
1 - Z4590/B/203/1

>  <smiles>  (791) 
CCN1Cc2ccc(NC(=O)c3cc(C4CC4)nc4c3c(C)nn4[C@@H]3CCS(=O)(=O)C3)cc2C1

>  <HIPPO Pose ID>  (791) 
125732

>  <energy_score>  (791) 
-63.497164

>  <inchikey>  (791) 
WVUFCQYAEJOVGI-HXUWFJFHSA-N

>  <gnina_score_min>  (791) 
6.578

>  <gnina_score>  (791) 
6.518

>  <ref_mols>  (791) 
Z3559a

>  <HIPPO Compound ID>  (791) 
187862

>  <distance_score>  (791) 
0.48974

>  <rmsd(smina/fragmenstein)>  (791) 
0.38

>  <ref_pdb>  (791) 
Z3559a

>  <inspiration_score>  (791) 
None

$$$$
P125735
     RDKit          3D

 34 39  0  0  0  0  0  0  0  0999 V2000
   -4.0372    6.4045  -14.4359 C   0  0  0  0  0  0  0  0  0  0  0  0
   -4.7157    5.9340  -15.6701 C   0  0  0  0  0  0  0  0  0  0  0  0
   -4.0758    6.0249  -16.8473 N   0  0  0  0  0  0  0  0  0  0  0  0
   -4.9453    5.4938  -17.7279 N   0  0  0  0  0  0  0  0  0  0  0  0
   -4.6243    5.4161  -19.1331 C   0  0  1  0  0  0  0  0  0  0  0  0
   -5.2258    6.5662  -19.9478 C   0  0  0  0  0  0  0  0  0  0  0  0
   -4.7528    6.3263  -21.3755 C   0  0  0  0  0  0  0  0  0  0  0  0
   -3.0924    5.6825  -21.2136 S   0  0  0  0  0  0  0  0  0  0  0  0
   -3.0414    4.3817  -21.8485 O   0  0  0  0  0  0  0  0  0  0  0  0
   -2.1594    6.7428  -21.5319 O   0  0  0  0  0  0  0  0  0  0  0  0
   -3.1300    5.4410  -19.4517 C   0  0  0  0  0  0  0  0  0  0  0  0
   -6.1212    5.0903  -17.1616 C   0  0  0  0  0  0  0  0  0  0  0  0
   -7.1699    4.5570  -17.8066 N   0  0  0  0  0  0  0  0  0  0  0  0
   -8.2470    4.2767  -17.0350 C   0  0  0  0  0  0  0  0  0  0  0  0
   -9.5058    3.7738  -17.7087 C   0  0  0  0  0  0  0  0  0  0  0  0
   -9.7250    3.9715  -19.1865 C   0  0  0  0  0  0  0  0  0  0  0  0
   -9.4386    2.6003  -18.6526 C   0  0  0  0  0  0  0  0  0  0  0  0
   -8.2584    4.5152  -15.6583 C   0  0  0  0  0  0  0  0  0  0  0  0
   -7.1395    5.0784  -15.0303 C   0  0  0  0  0  0  0  0  0  0  0  0
   -7.1864    5.4903  -13.6132 C   0  0  0  0  0  0  0  0  0  0  0  0
   -6.8334    6.5692  -13.3434 O   0  0  0  0  0  0  0  0  0  0  0  0
   -7.7638    4.3736  -12.7182 N   0  0  0  0  0  0  0  0  0  0  0  0
   -7.9332    4.3184  -11.3408 C   0  0  0  0  0  0  0  0  0  0  0  0
   -7.4926    5.3680  -10.5097 C   0  0  0  0  0  0  0  0  0  0  0  0
   -7.6692    5.3203   -9.1207 C   0  0  0  0  0  0  0  0  0  0  0  0
   -8.3113    4.2215   -8.5906 C   0  0  0  0  0  0  0  0  0  0  0  0
   -8.7555    3.2032   -9.4321 C   0  0  0  0  0  0  0  0  0  0  0  0
   -8.5667    3.2060  -10.7983 C   0  0  0  0  0  0  0  0  0  0  0  0
   -9.4888    2.2362   -8.6223 C   0  0  0  0  0  0  0  0  0  0  0  0
   -9.9861    1.2151   -9.0467 O   0  0  0  0  0  0  0  0  0  0  0  0
   -9.5175    2.7386   -7.3327 N   0  0  0  0  0  0  0  0  0  0  0  0
   -9.8603    1.8861   -6.2323 C   0  0  0  0  0  0  0  0  0  0  0  0
   -8.6617    3.8945   -7.1788 C   0  0  0  0  0  0  0  0  0  0  0  0
   -6.0174    5.3773  -15.8138 C   0  0  0  0  0  0  0  0  0  0  0  0
  1  2  1  0
  2  3  2  0
  3  4  1  0
  5  4  1  1
  5  6  1  0
  6  7  1  0
  7  8  1  0
  8  9  2  0
  8 10  2  0
  8 11  1  0
  4 12  1  0
 12 13  2  0
 13 14  1  0
 14 15  1  0
 15 16  1  0
 16 17  1  0
 14 18  2  0
 18 19  1  0
 19 20  1  0
 20 21  2  0
 20 22  1  0
 22 23  1  0
 23 24  2  0
 24 25  1  0
 25 26  2  0
 26 27  1  0
 27 28  2  0
 27 29  1  0
 29 30  2  0
 29 31  1  0
 31 32  1  0
 31 33  1  0
 19 34  2  0
 34  2  1  0
 11  5  1  0
 34 12  1  0
 17 15  1  0
 28 23  1  0
 33 26  1  0
M  END
>  <name>  (792) 
P125735

>  <alias>  (792) 
None

>  <smina_score_min>  (792) 
-9.466

>  <exports>  (792) 
['/opt/xchem-fragalysis-2/maxwin/BulkDock/OUTPUTS/openbind_xx01zvns2b_c2_elabs_1LOUTNY.sdf', '/opt/xchem-fragalysis-2/maxwin/BulkDock/OUTPUTS/openbind_xx01zvns2b_c2_elabs_1LSYIIV.sdf']

>  <tags>  (792) 
syndirella_placed,openbind_xx01zvns2b_c2_elabs,openbind_xx01zvns2b_c2_elabs_scored_6.2plus,syndirella_product,openbind_xx01zvns2b_c2_elabs_scored,openbind_xx01zvns2b_c2_elabs_scored_top80percent,BulkDock Fragalysis export

>  <subsites>  (792) 
1 - Z4590/B/203/1

>  <smiles>  (792) 
Cc1nn([C@H]2CCS(=O)(=O)C2)c2nc(C3CC3)cc(C(=O)Nc3ccc4c(c3)C(=O)N(C)C4)c12

>  <HIPPO Pose ID>  (792) 
125735

>  <energy_score>  (792) 
-58.502706

>  <inchikey>  (792) 
FZYAENFAHCZJNY-KRWDZBQOSA-N

>  <gnina_score_min>  (792) 
6.544

>  <gnina_score>  (792) 
6.632

>  <ref_mols>  (792) 
Z3559a

>  <HIPPO Compound ID>  (792) 
187863

>  <distance_score>  (792) 
0.442229

>  <rmsd(smina/fragmenstein)>  (792) 
0.532

>  <ref_pdb>  (792) 
Z3559a

>  <inspiration_score>  (792) 
None

$$$$
P125736
     RDKit          3D

 34 39  0  0  0  0  0  0  0  0999 V2000
   -4.3831    6.9041  -14.3357 C   0  0  0  0  0  0  0  0  0  0  0  0
   -4.8510    6.2778  -15.5977 C   0  0  0  0  0  0  0  0  0  0  0  0
   -4.1104    6.4040  -16.7057 N   0  0  0  0  0  0  0  0  0  0  0  0
   -4.8265    5.7722  -17.6642 N   0  0  0  0  0  0  0  0  0  0  0  0
   -4.3324    5.8764  -19.0248 C   0  0  1  0  0  0  0  0  0  0  0  0
   -2.8724    5.4037  -19.1540 C   0  0  0  0  0  0  0  0  0  0  0  0
   -2.5230    5.4985  -20.6285 C   0  0  0  0  0  0  0  0  0  0  0  0
   -4.0084    5.0373  -21.4955 S   0  0  0  0  0  0  0  0  0  0  0  0
   -3.8848    3.6478  -21.8912 O   0  0  0  0  0  0  0  0  0  0  0  0
   -4.3175    6.0839  -22.4478 O   0  0  0  0  0  0  0  0  0  0  0  0
   -5.1222    5.1557  -20.1095 C   0  0  0  0  0  0  0  0  0  0  0  0
   -5.9883    5.2250  -17.1868 C   0  0  0  0  0  0  0  0  0  0  0  0
   -6.9134    4.5453  -17.8805 N   0  0  0  0  0  0  0  0  0  0  0  0
   -8.0035    4.1365  -17.1777 C   0  0  0  0  0  0  0  0  0  0  0  0
   -9.0488    3.3714  -17.9603 C   0  0  0  0  0  0  0  0  0  0  0  0
   -9.4398    3.9484  -19.3030 C   0  0  0  0  0  0  0  0  0  0  0  0
  -10.4439    3.8881  -18.2049 C   0  0  0  0  0  0  0  0  0  0  0  0
   -8.1678    4.4059  -15.8186 C   0  0  0  0  0  0  0  0  0  0  0  0
   -7.1854    5.1389  -15.1444 C   0  0  0  0  0  0  0  0  0  0  0  0
   -7.3832    5.5820  -13.7538 C   0  0  0  0  0  0  0  0  0  0  0  0
   -7.4274    6.7348  -13.5255 O   0  0  0  0  0  0  0  0  0  0  0  0
   -7.4826    4.4018  -12.8273 N   0  0  0  0  0  0  0  0  0  0  0  0
   -6.0594    3.9690  -12.2946 C   0  0  0  0  0  0  0  0  0  0  0  0
   -7.7615    4.3364  -11.3876 C   0  0  0  0  0  0  0  0  0  0  0  0
   -7.7137    5.4995  -10.5790 C   0  0  0  0  0  0  0  0  0  0  0  0
   -8.0173    5.4375   -9.2181 C   0  0  0  0  0  0  0  0  0  0  0  0
   -8.4498    4.2287   -8.7094 C   0  0  0  0  0  0  0  0  0  0  0  0
   -8.6123    3.1097   -9.5283 C   0  0  0  0  0  0  0  0  0  0  0  0
   -8.2922    3.1434  -10.8683 C   0  0  0  0  0  0  0  0  0  0  0  0
   -9.1521    1.9789   -8.7181 C   0  0  0  0  0  0  0  0  0  0  0  0
   -9.6484    2.6384   -7.4895 N   0  0  0  0  0  0  0  0  0  0  0  0
   -9.5689    1.7541   -6.3514 C   0  0  0  0  0  0  0  0  0  0  0  0
   -8.8390    3.8597   -7.3142 C   0  0  0  0  0  0  0  0  0  0  0  0
   -6.0428    5.5496  -15.8422 C   0  0  0  0  0  0  0  0  0  0  0  0
  1  2  1  0
  2  3  2  0
  3  4  1  0
  5  4  1  1
  5  6  1  0
  6  7  1  0
  7  8  1  0
  8  9  2  0
  8 10  2  0
  8 11  1  0
  4 12  1  0
 12 13  2  0
 13 14  1  0
 14 15  1  0
 15 16  1  0
 16 17  1  0
 14 18  2  0
 18 19  1  0
 19 20  1  0
 20 21  2  0
 20 22  1  0
 22 23  1  0
 22 24  1  0
 24 25  2  0
 25 26  1  0
 26 27  2  0
 27 28  1  0
 28 29  2  0
 28 30  1  0
 30 31  1  0
 31 32  1  0
 31 33  1  0
 19 34  2  0
 34  2  1  0
 11  5  1  0
 34 12  1  0
 17 15  1  0
 29 24  1  0
 33 27  1  0
M  END
>  <name>  (793) 
P125736

>  <alias>  (793) 
None

>  <smina_score_min>  (793) 
-9.807

>  <exports>  (793) 
['/opt/xchem-fragalysis-2/maxwin/BulkDock/OUTPUTS/openbind_xx01zvns2b_c2_elabs_1LOUTNY.sdf', '/opt/xchem-fragalysis-2/maxwin/BulkDock/OUTPUTS/openbind_xx01zvns2b_c2_elabs_1LSYIIV.sdf']

>  <tags>  (793) 
syndirella_placed,openbind_xx01zvns2b_c2_elabs,openbind_xx01zvns2b_c2_elabs_scored_6.2plus,syndirella_product,openbind_xx01zvns2b_c2_elabs_scored,openbind_xx01zvns2b_c2_elabs_scored_top80percent,BulkDock Fragalysis export

>  <subsites>  (793) 
1 - Z4590/B/203/1

>  <smiles>  (793) 
Cc1nn([C@H]2CCS(=O)(=O)C2)c2nc(C3CC3)cc(C(=O)N(C)c3ccc4c(c3)CN(C)C4)c12

>  <HIPPO Pose ID>  (793) 
125736

>  <energy_score>  (793) 
-25.699008

>  <inchikey>  (793) 
LLVXIHSXYMBUMG-FQEVSTJZSA-N

>  <gnina_score_min>  (793) 
6.899

>  <gnina_score>  (793) 
6.847

>  <ref_mols>  (793) 
Z3559a

>  <HIPPO Compound ID>  (793) 
187864

>  <distance_score>  (793) 
0.690993

>  <rmsd(smina/fragmenstein)>  (793) 
0.281

>  <ref_pdb>  (793) 
Z3559a

>  <inspiration_score>  (793) 
None

$$$$
P125737
     RDKit          3D

 34 39  0  0  0  0  0  0  0  0999 V2000
   -1.9887    5.0332  -22.8089 C   0  0  0  0  0  0  0  0  0  0  0  0
   -2.2718    5.2662  -21.3808 C   0  0  0  0  0  0  0  0  0  0  0  0
   -1.4769    5.4489  -20.2733 C   0  0  0  0  0  0  0  0  0  0  0  0
   -2.3511    5.6215  -19.1757 C   0  0  0  0  0  0  0  0  0  0  0  0
   -3.6343    5.5531  -19.6775 C   0  0  0  0  0  0  0  0  0  0  0  0
   -5.0031    5.6981  -19.1257 C   0  0  0  0  0  0  0  0  0  0  0  0
   -5.1309    5.5491  -17.6785 N   0  0  0  0  0  0  0  0  0  0  0  0
   -4.2980    6.1682  -16.7981 N   0  0  0  0  0  0  0  0  0  0  0  0
   -4.9073    5.9959  -15.6173 C   0  0  0  0  0  0  0  0  0  0  0  0
   -6.1496    5.3366  -15.7264 C   0  0  0  0  0  0  0  0  0  0  0  0
   -7.2372    4.9909  -14.9113 C   0  0  0  0  0  0  0  0  0  0  0  0
   -7.2803    5.4674  -13.5067 C   0  0  0  0  0  0  0  0  0  0  0  0
   -6.8977    6.5538  -13.3068 O   0  0  0  0  0  0  0  0  0  0  0  0
   -7.9017    4.4279  -12.5405 N   0  0  0  0  0  0  0  0  0  0  0  0
   -8.0876    4.4733  -11.1553 C   0  0  0  0  0  0  0  0  0  0  0  0
   -7.8817    5.6706  -10.4514 C   0  0  0  0  0  0  0  0  0  0  0  0
   -8.0555    5.7360   -9.0637 C   0  0  0  0  0  0  0  0  0  0  0  0
   -8.4311    4.5897   -8.3825 C   0  0  0  0  0  0  0  0  0  0  0  0
   -8.6373    3.4009   -9.0821 C   0  0  0  0  0  0  0  0  0  0  0  0
   -8.4827    3.3238  -10.4653 C   0  0  0  0  0  0  0  0  0  0  0  0
   -9.0244    2.3192   -8.1272 C   0  0  0  0  0  0  0  0  0  0  0  0
   -8.8875    2.9084   -6.7684 N   0  0  0  0  0  0  0  0  0  0  0  0
   -9.9953    2.5129   -5.9156 C   0  0  0  0  0  0  0  0  0  0  0  0
   -8.5762    4.3568   -6.8934 C   0  0  0  0  0  0  0  0  0  0  0  0
   -9.5575    5.3145   -6.1882 C   0  0  0  0  0  0  0  0  0  0  0  0
   -7.2055    4.6273   -6.2400 C   0  0  0  0  0  0  0  0  0  0  0  0
   -8.3527    4.4090  -15.5307 C   0  0  0  0  0  0  0  0  0  0  0  0
   -8.3613    4.2013  -16.9164 C   0  0  0  0  0  0  0  0  0  0  0  0
   -9.6177    3.7339  -17.6151 C   0  0  0  0  0  0  0  0  0  0  0  0
   -9.8166    3.9786  -19.0925 C   0  0  0  0  0  0  0  0  0  0  0  0
   -9.5465    2.5903  -18.5975 C   0  0  0  0  0  0  0  0  0  0  0  0
   -7.3017    4.4979  -17.6991 N   0  0  0  0  0  0  0  0  0  0  0  0
   -6.2592    5.0555  -17.0733 C   0  0  0  0  0  0  0  0  0  0  0  0
   -3.5834    5.3312  -21.0283 O   0  0  0  0  0  0  0  0  0  0  0  0
  1  2  1  0
  2  3  2  0
  3  4  1  0
  4  5  2  0
  5  6  1  0
  6  7  1  0
  7  8  1  0
  8  9  2  0
  9 10  1  0
 10 11  2  0
 11 12  1  0
 12 13  2  0
 12 14  1  0
 14 15  1  0
 15 16  2  0
 16 17  1  0
 17 18  2  0
 18 19  1  0
 19 20  2  0
 19 21  1  0
 21 22  1  0
 22 23  1  0
 22 24  1  0
 24 25  1  0
 24 26  1  0
 11 27  1  0
 27 28  2  0
 28 29  1  0
 29 30  1  0
 30 31  1  0
 28 32  1  0
 32 33  2  0
  5 34  1  0
 34  2  1  0
 33  7  1  0
 33 10  1  0
 20 15  1  0
 31 29  1  0
 24 18  1  0
M  END
>  <name>  (794) 
P125737

>  <alias>  (794) 
None

>  <smina_score_min>  (794) 
-9.098

>  <exports>  (794) 
['/opt/xchem-fragalysis-2/maxwin/BulkDock/OUTPUTS/openbind_xx01zvns2b_c2_elabs_1LOUTNY.sdf', '/opt/xchem-fragalysis-2/maxwin/BulkDock/OUTPUTS/openbind_xx01zvns2b_c2_elabs_1LSYIIV.sdf']

>  <tags>  (794) 
syndirella_placed,openbind_xx01zvns2b_c2_elabs,openbind_xx01zvns2b_c2_elabs_scored_6.2plus,syndirella_product,openbind_xx01zvns2b_c2_elabs_scored,openbind_xx01zvns2b_c2_elabs_scored_top80percent,BulkDock Fragalysis export

>  <subsites>  (794) 
1 - Z4590/B/203/1

>  <smiles>  (794) 
Cc1ccc(Cn2ncc3c(C(=O)Nc4ccc5c(c4)CN(C)C5(C)C)cc(C4CC4)nc32)o1

>  <HIPPO Pose ID>  (794) 
125737

>  <energy_score>  (794) 
-38.579212

>  <inchikey>  (794) 
YURIMNMDWBPSNX-UHFFFAOYSA-N

>  <gnina_score_min>  (794) 
6.502

>  <gnina_score>  (794) 
6.508

>  <ref_mols>  (794) 
Z3559a

>  <HIPPO Compound ID>  (794) 
187866

>  <distance_score>  (794) 
0.470595

>  <rmsd(smina/fragmenstein)>  (794) 
0.599

>  <ref_pdb>  (794) 
Z3559a

>  <inspiration_score>  (794) 
None

$$$$
P125738
     RDKit          3D

 34 39  0  0  0  0  0  0  0  0999 V2000
  -11.5319    2.6404   -5.3448 C   0  0  0  0  0  0  0  0  0  0  0  0
  -10.5064    1.6480   -5.8418 C   0  0  0  0  0  0  0  0  0  0  0  0
   -9.1694    2.3053   -6.1315 C   0  0  0  0  0  0  0  0  0  0  0  0
   -9.2916    3.1406   -7.3081 N   0  0  0  0  0  0  0  0  0  0  0  0
   -8.3677    4.2731   -7.3089 C   0  0  0  0  0  0  0  0  0  0  0  0
   -8.1512    4.5424   -8.7554 C   0  0  0  0  0  0  0  0  0  0  0  0
   -7.6526    5.6750   -9.3571 C   0  0  0  0  0  0  0  0  0  0  0  0
   -7.5175    5.6589  -10.7409 C   0  0  0  0  0  0  0  0  0  0  0  0
   -7.8515    4.5145  -11.4871 C   0  0  0  0  0  0  0  0  0  0  0  0
   -7.6391    4.4953  -12.8565 N   0  0  0  0  0  0  0  0  0  0  0  0
   -7.1697    5.6082  -13.8118 C   0  0  0  0  0  0  0  0  0  0  0  0
   -6.8136    6.6957  -13.5885 O   0  0  0  0  0  0  0  0  0  0  0  0
   -7.1245    5.1323  -15.2005 C   0  0  0  0  0  0  0  0  0  0  0  0
   -8.2496    4.5624  -15.7910 C   0  0  0  0  0  0  0  0  0  0  0  0
   -8.2341    4.2706  -17.1514 C   0  0  0  0  0  0  0  0  0  0  0  0
   -9.5029    3.7588  -17.7961 C   0  0  0  0  0  0  0  0  0  0  0  0
   -9.4545    2.5555  -18.7008 C   0  0  0  0  0  0  0  0  0  0  0  0
   -9.7357    3.9123  -19.2748 C   0  0  0  0  0  0  0  0  0  0  0  0
   -7.1500    4.5003  -17.9332 N   0  0  0  0  0  0  0  0  0  0  0  0
   -6.0723    5.0424  -17.3243 C   0  0  0  0  0  0  0  0  0  0  0  0
   -5.9842    5.3620  -15.9777 C   0  0  0  0  0  0  0  0  0  0  0  0
   -4.6712    5.8532  -15.7948 C   0  0  0  0  0  0  0  0  0  0  0  0
   -4.0039    6.3092  -14.5486 C   0  0  0  0  0  0  0  0  0  0  0  0
   -3.9843    5.8662  -16.9368 N   0  0  0  0  0  0  0  0  0  0  0  0
   -4.8441    5.3857  -17.8856 N   0  0  0  0  0  0  0  0  0  0  0  0
   -4.3978    5.2839  -19.2450 C   0  0  0  0  0  0  0  0  0  0  0  0
   -5.2727    4.9521  -20.2722 C   0  0  0  0  0  0  0  0  0  0  0  0
   -4.7736    4.8232  -21.5709 C   0  0  0  0  0  0  0  0  0  0  0  0
   -3.4190    5.0095  -21.8137 C   0  0  0  0  0  0  0  0  0  0  0  0
   -2.6104    5.3400  -20.7441 C   0  0  0  0  0  0  0  0  0  0  0  0
   -3.0711    5.4941  -19.4861 N   0  0  0  0  0  0  0  0  0  0  0  0
   -8.3662    3.3764  -10.8667 C   0  0  0  0  0  0  0  0  0  0  0  0
   -8.5274    3.4196   -9.4967 C   0  0  0  0  0  0  0  0  0  0  0  0
   -9.0803    2.3869   -8.5686 C   0  0  0  0  0  0  0  0  0  0  0  0
  1  2  1  0
  2  3  1  0
  3  4  1  0
  4  5  1  0
  5  6  1  0
  6  7  2  0
  7  8  1  0
  8  9  2  0
  9 10  1  0
 10 11  1  0
 11 12  2  0
 11 13  1  0
 13 14  2  0
 14 15  1  0
 15 16  1  0
 16 17  1  0
 17 18  1  0
 15 19  2  0
 19 20  1  0
 20 21  2  0
 21 22  1  0
 22 23  1  0
 22 24  2  0
 24 25  1  0
 25 26  1  0
 26 27  2  0
 27 28  1  0
 28 29  2  0
 29 30  1  0
 30 31  2  0
  9 32  1  0
 32 33  2  0
 33 34  1  0
 34  4  1  0
 33  6  1  0
 21 13  1  0
 31 26  1  0
 18 16  1  0
 25 20  1  0
M  END
>  <name>  (795) 
P125738

>  <alias>  (795) 
None

>  <smina_score_min>  (795) 
-9.135

>  <exports>  (795) 
['/opt/xchem-fragalysis-2/maxwin/BulkDock/OUTPUTS/openbind_xx01zvns2b_c2_elabs_1LOUTNY.sdf', '/opt/xchem-fragalysis-2/maxwin/BulkDock/OUTPUTS/openbind_xx01zvns2b_c2_elabs_1LSYIIV.sdf']

>  <tags>  (795) 
syndirella_placed,openbind_xx01zvns2b_c2_elabs,openbind_xx01zvns2b_c2_elabs_scored_6.2plus,syndirella_product,openbind_xx01zvns2b_c2_elabs_scored,openbind_xx01zvns2b_c2_elabs_scored_top80percent,BulkDock Fragalysis export

>  <subsites>  (795) 
1 - Z4590/B/203/1

>  <smiles>  (795) 
CCCN1Cc2ccc(NC(=O)c3cc(C4CC4)nc4c3c(C)nn4-c3ccccn3)cc2C1

>  <HIPPO Pose ID>  (795) 
125738

>  <energy_score>  (795) 
-48.135936

>  <inchikey>  (795) 
ZVCPPUAEOCSJEN-UHFFFAOYSA-N

>  <gnina_score_min>  (795) 
6.621

>  <gnina_score>  (795) 
6.504

>  <ref_mols>  (795) 
Z3559a

>  <HIPPO Compound ID>  (795) 
187870

>  <distance_score>  (795) 
0.593646

>  <rmsd(smina/fragmenstein)>  (795) 
0.572

>  <ref_pdb>  (795) 
Z3559a

>  <inspiration_score>  (795) 
None

$$$$
P125739
     RDKit          3D

 34 39  0  0  0  0  0  0  0  0999 V2000
  -10.7001    2.6606   -5.3675 C   0  0  0  0  0  0  0  0  0  0  0  0
   -9.8801    1.9070   -6.3912 C   0  0  0  0  0  0  0  0  0  0  0  0
   -9.4579    2.7408   -7.4844 N   0  0  0  0  0  0  0  0  0  0  0  0
   -8.6502    3.9313   -7.3091 C   0  0  0  0  0  0  0  0  0  0  0  0
   -8.2907    4.2745   -8.7144 C   0  0  0  0  0  0  0  0  0  0  0  0
   -7.6760    5.3935   -9.2339 C   0  0  0  0  0  0  0  0  0  0  0  0
   -7.5042    5.4589  -10.6230 C   0  0  0  0  0  0  0  0  0  0  0  0
   -7.9187    4.4049  -11.4614 C   0  0  0  0  0  0  0  0  0  0  0  0
   -7.7603    4.4670  -12.8381 N   0  0  0  0  0  0  0  0  0  0  0  0
   -7.1356    5.5604  -13.7253 C   0  0  0  0  0  0  0  0  0  0  0  0
   -6.7247    6.6155  -13.4478 O   0  0  0  0  0  0  0  0  0  0  0  0
   -7.0904    5.1302  -15.1366 C   0  0  0  0  0  0  0  0  0  0  0  0
   -8.2185    4.5824  -15.7513 C   0  0  0  0  0  0  0  0  0  0  0  0
   -8.1960    4.2939  -17.1131 C   0  0  0  0  0  0  0  0  0  0  0  0
   -9.4624    3.7871  -17.7726 C   0  0  0  0  0  0  0  0  0  0  0  0
   -9.4148    2.5825  -18.6768 C   0  0  0  0  0  0  0  0  0  0  0  0
   -9.6703    3.9414  -19.2559 C   0  0  0  0  0  0  0  0  0  0  0  0
   -7.1032    4.5186  -17.8775 N   0  0  0  0  0  0  0  0  0  0  0  0
   -6.0259    5.0451  -17.2574 C   0  0  0  0  0  0  0  0  0  0  0  0
   -5.9429    5.3568  -15.9073 C   0  0  0  0  0  0  0  0  0  0  0  0
   -4.6225    5.8308  -15.7161 C   0  0  0  0  0  0  0  0  0  0  0  0
   -3.9579    6.2719  -14.4626 C   0  0  0  0  0  0  0  0  0  0  0  0
   -3.9242    5.8396  -16.8540 N   0  0  0  0  0  0  0  0  0  0  0  0
   -4.7924    5.3787  -17.8086 N   0  0  0  0  0  0  0  0  0  0  0  0
   -4.3681    5.2870  -19.1729 C   0  0  0  0  0  0  0  0  0  0  0  0
   -3.0319    5.5611  -19.4795 C   0  0  0  0  0  0  0  0  0  0  0  0
   -2.6001    5.4483  -20.8006 C   0  0  0  0  0  0  0  0  0  0  0  0
   -3.5103    5.0942  -21.7865 C   0  0  0  0  0  0  0  0  0  0  0  0
   -4.8168    4.8513  -21.4048 C   0  0  0  0  0  0  0  0  0  0  0  0
   -5.2538    4.9174  -20.1292 N   0  0  0  0  0  0  0  0  0  0  0  0
   -8.5237    3.2734  -10.9308 C   0  0  0  0  0  0  0  0  0  0  0  0
   -8.7103    3.2557   -9.5670 C   0  0  0  0  0  0  0  0  0  0  0  0
   -9.4412    2.2733   -8.7813 C   0  0  0  0  0  0  0  0  0  0  0  0
   -9.9659    1.2828   -9.2421 O   0  0  0  0  0  0  0  0  0  0  0  0
  1  2  1  0
  2  3  1  0
  3  4  1  0
  4  5  1  0
  5  6  2  0
  6  7  1  0
  7  8  2  0
  8  9  1  0
  9 10  1  0
 10 11  2  0
 10 12  1  0
 12 13  2  0
 13 14  1  0
 14 15  1  0
 15 16  1  0
 16 17  1  0
 14 18  2  0
 18 19  1  0
 19 20  2  0
 20 21  1  0
 21 22  1  0
 21 23  2  0
 23 24  1  0
 24 25  1  0
 25 26  2  0
 26 27  1  0
 27 28  2  0
 28 29  1  0
 29 30  2  0
  8 31  1  0
 31 32  2  0
 32 33  1  0
 33 34  2  0
 33  3  1  0
 32  5  1  0
 20 12  1  0
 30 25  1  0
 17 15  1  0
 24 19  1  0
M  END
>  <name>  (796) 
P125739

>  <alias>  (796) 
None

>  <smina_score_min>  (796) 
-9.501

>  <exports>  (796) 
['/opt/xchem-fragalysis-2/maxwin/BulkDock/OUTPUTS/openbind_xx01zvns2b_c2_elabs_1LOUTNY.sdf', '/opt/xchem-fragalysis-2/maxwin/BulkDock/OUTPUTS/openbind_xx01zvns2b_c2_elabs_1LSYIIV.sdf']

>  <tags>  (796) 
syndirella_placed,openbind_xx01zvns2b_c2_elabs,openbind_xx01zvns2b_c2_elabs_scored_6.2plus,syndirella_product,openbind_xx01zvns2b_c2_elabs_scored,openbind_xx01zvns2b_c2_elabs_scored_top80percent,BulkDock Fragalysis export

>  <subsites>  (796) 
1 - Z4590/B/203/1

>  <smiles>  (796) 
CCN1Cc2ccc(NC(=O)c3cc(C4CC4)nc4c3c(C)nn4-c3ccccn3)cc2C1=O

>  <HIPPO Pose ID>  (796) 
125739

>  <energy_score>  (796) 
-45.19907

>  <inchikey>  (796) 
AXXKSCFKETZMDX-UHFFFAOYSA-N

>  <gnina_score_min>  (796) 
6.391

>  <gnina_score>  (796) 
6.609

>  <ref_mols>  (796) 
Z3559a

>  <HIPPO Compound ID>  (796) 
187871

>  <distance_score>  (796) 
0.507004

>  <rmsd(smina/fragmenstein)>  (796) 
0.712

>  <ref_pdb>  (796) 
Z3559a

>  <inspiration_score>  (796) 
None

$$$$
P125740
     RDKit          3D

 34 39  0  0  0  0  0  0  0  0999 V2000
   -4.1180    6.3119  -14.2931 C   0  0  0  0  0  0  0  0  0  0  0  0
   -4.7343    5.8387  -15.5594 C   0  0  0  0  0  0  0  0  0  0  0  0
   -4.0055    5.8414  -16.6791 N   0  0  0  0  0  0  0  0  0  0  0  0
   -4.8483    5.3678  -17.6512 N   0  0  0  0  0  0  0  0  0  0  0  0
   -4.4049    5.2969  -19.0109 C   0  0  0  0  0  0  0  0  0  0  0  0
   -3.0666    5.5816  -19.2959 C   0  0  0  0  0  0  0  0  0  0  0  0
   -2.6206    5.5001  -20.6146 C   0  0  0  0  0  0  0  0  0  0  0  0
   -3.5193    5.1663  -21.6184 C   0  0  0  0  0  0  0  0  0  0  0  0
   -4.8293    4.9103  -21.2573 C   0  0  0  0  0  0  0  0  0  0  0  0
   -5.2795    4.9468  -19.9852 N   0  0  0  0  0  0  0  0  0  0  0  0
   -6.0870    5.0164  -17.1243 C   0  0  0  0  0  0  0  0  0  0  0  0
   -7.1450    4.4796  -17.7662 N   0  0  0  0  0  0  0  0  0  0  0  0
   -8.2566    4.2594  -17.0273 C   0  0  0  0  0  0  0  0  0  0  0  0
   -9.5065    3.7717  -17.7310 C   0  0  0  0  0  0  0  0  0  0  0  0
   -9.4422    2.5791  -18.6502 C   0  0  0  0  0  0  0  0  0  0  0  0
   -9.6655    3.9474  -19.2196 C   0  0  0  0  0  0  0  0  0  0  0  0
   -8.3150    4.5500  -15.6651 C   0  0  0  0  0  0  0  0  0  0  0  0
   -7.2090    5.1173  -15.0318 C   0  0  0  0  0  0  0  0  0  0  0  0
   -7.3218    5.6531  -13.6628 C   0  0  0  0  0  0  0  0  0  0  0  0
   -7.0077    6.7644  -13.4926 O   0  0  0  0  0  0  0  0  0  0  0  0
   -7.8715    4.6053  -12.6710 N   0  0  0  0  0  0  0  0  0  0  0  0
   -8.0545    4.6737  -11.2917 C   0  0  0  0  0  0  0  0  0  0  0  0
   -7.8281    5.8816  -10.6097 C   0  0  0  0  0  0  0  0  0  0  0  0
   -7.9883    5.9749   -9.2257 C   0  0  0  0  0  0  0  0  0  0  0  0
   -8.3890    4.8479   -8.5362 C   0  0  0  0  0  0  0  0  0  0  0  0
   -8.6332    3.6485   -9.2198 C   0  0  0  0  0  0  0  0  0  0  0  0
   -8.4627    3.5372  -10.5929 C   0  0  0  0  0  0  0  0  0  0  0  0
   -9.0680    2.6042   -8.2447 C   0  0  0  0  0  0  0  0  0  0  0  0
   -9.3276    3.3676   -7.0043 N   0  0  0  0  0  0  0  0  0  0  0  0
   -9.1901    2.5553   -5.8249 C   0  0  0  0  0  0  0  0  0  0  0  0
   -8.5643    4.6355   -7.0489 C   0  0  0  0  0  0  0  0  0  0  0  0
   -9.3698    5.7186   -6.3057 C   0  0  0  0  0  0  0  0  0  0  0  0
   -7.1583    4.6502   -6.4207 C   0  0  0  0  0  0  0  0  0  0  0  0
   -6.0413    5.3392  -15.7760 C   0  0  0  0  0  0  0  0  0  0  0  0
  1  2  1  0
  2  3  2  0
  3  4  1  0
  4  5  1  0
  5  6  2  0
  6  7  1  0
  7  8  2  0
  8  9  1  0
  9 10  2  0
  4 11  1  0
 11 12  2  0
 12 13  1  0
 13 14  1  0
 14 15  1  0
 15 16  1  0
 13 17  2  0
 17 18  1  0
 18 19  1  0
 19 20  2  0
 19 21  1  0
 21 22  1  0
 22 23  2  0
 23 24  1  0
 24 25  2  0
 25 26  1  0
 26 27  2  0
 26 28  1  0
 28 29  1  0
 29 30  1  0
 29 31  1  0
 31 32  1  0
 31 33  1  0
 18 34  2  0
 34  2  1  0
 10  5  1  0
 34 11  1  0
 16 14  1  0
 27 22  1  0
 31 25  1  0
M  END
>  <name>  (797) 
P125740

>  <alias>  (797) 
None

>  <smina_score_min>  (797) 
-9.719

>  <exports>  (797) 
['/opt/xchem-fragalysis-2/maxwin/BulkDock/OUTPUTS/openbind_xx01zvns2b_c2_elabs_1LOUTNY.sdf', '/opt/xchem-fragalysis-2/maxwin/BulkDock/OUTPUTS/openbind_xx01zvns2b_c2_elabs_1LSYIIV.sdf']

>  <tags>  (797) 
syndirella_placed,openbind_xx01zvns2b_c2_elabs,openbind_xx01zvns2b_c2_elabs_scored_6.2plus,syndirella_product,openbind_xx01zvns2b_c2_elabs_scored,openbind_xx01zvns2b_c2_elabs_scored_top80percent,BulkDock Fragalysis export

>  <subsites>  (797) 
1 - Z4590/B/203/1

>  <smiles>  (797) 
Cc1nn(-c2ccccn2)c2nc(C3CC3)cc(C(=O)Nc3ccc4c(c3)CN(C)C4(C)C)c12

>  <HIPPO Pose ID>  (797) 
125740

>  <energy_score>  (797) 
-64.027762

>  <inchikey>  (797) 
OVTRFTUVDHYCFU-UHFFFAOYSA-N

>  <gnina_score_min>  (797) 
6.696

>  <gnina_score>  (797) 
6.59

>  <ref_mols>  (797) 
Z3559a

>  <HIPPO Compound ID>  (797) 
187872

>  <distance_score>  (797) 
0.644666

>  <rmsd(smina/fragmenstein)>  (797) 
0.918

>  <ref_pdb>  (797) 
Z3559a

>  <inspiration_score>  (797) 
None

$$$$
P125741
     RDKit          3D

 34 39  0  0  0  0  0  0  0  0999 V2000
  -10.8814    2.9182   -5.4386 C   0  0  0  0  0  0  0  0  0  0  0  0
   -9.6337    2.2799   -6.0144 C   0  0  0  0  0  0  0  0  0  0  0  0
   -9.2118    2.9097   -7.2364 N   0  0  0  0  0  0  0  0  0  0  0  0
   -9.1335    2.1891   -8.4988 C   0  0  0  0  0  0  0  0  0  0  0  0
   -8.5824    3.2335   -9.4127 C   0  0  0  0  0  0  0  0  0  0  0  0
   -8.3730    3.2044  -10.7803 C   0  0  0  0  0  0  0  0  0  0  0  0
   -7.8686    4.3615  -11.3874 C   0  0  0  0  0  0  0  0  0  0  0  0
   -7.6344    4.3668  -12.7573 N   0  0  0  0  0  0  0  0  0  0  0  0
   -7.2265    5.5184  -13.6999 C   0  0  0  0  0  0  0  0  0  0  0  0
   -6.9481    6.6266  -13.4637 O   0  0  0  0  0  0  0  0  0  0  0  0
   -7.1602    5.0753  -15.0996 C   0  0  0  0  0  0  0  0  0  0  0  0
   -8.2771    4.5203  -15.7219 C   0  0  0  0  0  0  0  0  0  0  0  0
   -8.2426    4.2638  -17.0899 C   0  0  0  0  0  0  0  0  0  0  0  0
   -9.5003    3.7752  -17.7757 C   0  0  0  0  0  0  0  0  0  0  0  0
   -9.4515    2.5621  -18.6676 C   0  0  0  0  0  0  0  0  0  0  0  0
   -9.6672    3.9199  -19.2654 C   0  0  0  0  0  0  0  0  0  0  0  0
   -7.1460    4.5109  -17.8417 N   0  0  0  0  0  0  0  0  0  0  0  0
   -6.0772    5.0358  -17.2091 C   0  0  0  0  0  0  0  0  0  0  0  0
   -6.0099    5.3322  -15.8570 C   0  0  0  0  0  0  0  0  0  0  0  0
   -4.7047    5.8404  -15.6521 C   0  0  0  0  0  0  0  0  0  0  0  0
   -4.0736    6.2995  -14.3881 C   0  0  0  0  0  0  0  0  0  0  0  0
   -3.9945    5.8713  -16.7833 N   0  0  0  0  0  0  0  0  0  0  0  0
   -4.8440    5.3893  -17.7469 N   0  0  0  0  0  0  0  0  0  0  0  0
   -4.4065    5.2949  -19.1059 C   0  0  0  0  0  0  0  0  0  0  0  0
   -3.0768    5.5975  -19.4103 C   0  0  0  0  0  0  0  0  0  0  0  0
   -2.6344    5.4614  -20.7261 C   0  0  0  0  0  0  0  0  0  0  0  0
   -3.5272    5.0502  -21.7071 C   0  0  0  0  0  0  0  0  0  0  0  0
   -4.8295    4.7826  -21.3280 C   0  0  0  0  0  0  0  0  0  0  0  0
   -5.2751    4.8839  -20.0588 N   0  0  0  0  0  0  0  0  0  0  0  0
   -7.5792    5.5127  -10.6275 C   0  0  0  0  0  0  0  0  0  0  0  0
   -7.7807    5.5316   -9.2518 C   0  0  0  0  0  0  0  0  0  0  0  0
   -8.2774    4.3821   -8.6813 C   0  0  0  0  0  0  0  0  0  0  0  0
   -8.6242    4.1537   -7.2817 C   0  0  0  0  0  0  0  0  0  0  0  0
   -8.4279    4.9474   -6.3798 O   0  0  0  0  0  0  0  0  0  0  0  0
  1  2  1  0
  2  3  1  0
  3  4  1  0
  4  5  1  0
  5  6  2  0
  6  7  1  0
  7  8  1  0
  8  9  1  0
  9 10  2  0
  9 11  1  0
 11 12  2  0
 12 13  1  0
 13 14  1  0
 14 15  1  0
 15 16  1  0
 13 17  2  0
 17 18  1  0
 18 19  2  0
 19 20  1  0
 20 21  1  0
 20 22  2  0
 22 23  1  0
 23 24  1  0
 24 25  2  0
 25 26  1  0
 26 27  2  0
 27 28  1  0
 28 29  2  0
  7 30  2  0
 30 31  1  0
 31 32  2  0
 32 33  1  0
 33 34  2  0
 33  3  1  0
 32  5  1  0
 19 11  1  0
 29 24  1  0
 16 14  1  0
 23 18  1  0
M  END
>  <name>  (798) 
P125741

>  <alias>  (798) 
None

>  <smina_score_min>  (798) 
-10.039

>  <exports>  (798) 
['/opt/xchem-fragalysis-2/maxwin/BulkDock/OUTPUTS/openbind_xx01zvns2b_c2_elabs_1LOUTNY.sdf', '/opt/xchem-fragalysis-2/maxwin/BulkDock/OUTPUTS/openbind_xx01zvns2b_c2_elabs_1LSYIIV.sdf']

>  <tags>  (798) 
syndirella_placed,openbind_xx01zvns2b_c2_elabs,openbind_xx01zvns2b_c2_elabs_scored_6.2plus,syndirella_product,openbind_xx01zvns2b_c2_elabs_scored,openbind_xx01zvns2b_c2_elabs_scored_top80percent,BulkDock Fragalysis export

>  <subsites>  (798) 
1 - Z4590/B/203/1

>  <smiles>  (798) 
CCN1Cc2cc(NC(=O)c3cc(C4CC4)nc4c3c(C)nn4-c3ccccn3)ccc2C1=O

>  <HIPPO Pose ID>  (798) 
125741

>  <energy_score>  (798) 
-51.959261

>  <inchikey>  (798) 
VERIOFBWKPFVKX-UHFFFAOYSA-N

>  <gnina_score_min>  (798) 
6.526

>  <gnina_score>  (798) 
6.558

>  <ref_mols>  (798) 
Z3559a

>  <HIPPO Compound ID>  (798) 
187875

>  <distance_score>  (798) 
0.484804

>  <rmsd(smina/fragmenstein)>  (798) 
0.966

>  <ref_pdb>  (798) 
Z3559a

>  <inspiration_score>  (798) 
None

$$$$
P125742
     RDKit          3D

 34 39  0  0  0  0  0  0  0  0999 V2000
  -10.8352    2.9716   -5.4668 C   0  0  0  0  0  0  0  0  0  0  0  0
   -9.5966    2.3083   -6.0341 C   0  0  0  0  0  0  0  0  0  0  0  0
   -9.1690    2.9168   -7.2658 N   0  0  0  0  0  0  0  0  0  0  0  0
   -9.1567    2.1949   -8.5294 C   0  0  0  0  0  0  0  0  0  0  0  0
   -8.5725    3.2087   -9.4572 C   0  0  0  0  0  0  0  0  0  0  0  0
   -8.3979    3.1681  -10.8305 C   0  0  0  0  0  0  0  0  0  0  0  0
   -7.8260    4.2861  -11.4510 C   0  0  0  0  0  0  0  0  0  0  0  0
   -7.6563    4.2909  -12.8321 N   0  0  0  0  0  0  0  0  0  0  0  0
   -6.9129    5.2895  -13.7490 C   0  0  0  0  0  0  0  0  0  0  0  0
   -6.3922    6.3046  -13.4980 O   0  0  0  0  0  0  0  0  0  0  0  0
   -6.9796    4.9037  -15.1778 C   0  0  0  0  0  0  0  0  0  0  0  0
   -8.1406    4.3731  -15.7537 C   0  0  0  0  0  0  0  0  0  0  0  0
   -8.2399    4.2452  -17.1429 C   0  0  0  0  0  0  0  0  0  0  0  0
   -9.5338    3.7551  -17.7501 C   0  0  0  0  0  0  0  0  0  0  0  0
   -9.8192    3.9299  -19.2189 C   0  0  0  0  0  0  0  0  0  0  0  0
   -9.5123    2.5661  -18.6764 C   0  0  0  0  0  0  0  0  0  0  0  0
   -7.2494    4.6298  -17.9829 N   0  0  0  0  0  0  0  0  0  0  0  0
   -6.1532    5.1260  -17.3915 C   0  0  0  0  0  0  0  0  0  0  0  0
   -5.9369    5.2755  -16.0356 C   0  0  0  0  0  0  0  0  0  0  0  0
   -4.6572    5.8634  -15.9497 C   0  0  0  0  0  0  0  0  0  0  0  0
   -4.1220    6.1280  -17.1479 N   0  0  0  0  0  0  0  0  0  0  0  0
   -5.0780    5.7074  -18.0179 N   0  0  0  0  0  0  0  0  0  0  0  0
   -5.1151    6.2625  -19.3624 C   0  0  0  0  0  0  0  0  0  0  0  0
   -4.4764    5.4238  -20.4208 C   0  0  0  0  0  0  0  0  0  0  0  0
   -5.1733    4.3860  -21.0396 C   0  0  0  0  0  0  0  0  0  0  0  0
   -4.5765    3.6827  -22.0783 C   0  0  0  0  0  0  0  0  0  0  0  0
   -3.3165    4.0664  -22.4978 C   0  0  0  0  0  0  0  0  0  0  0  0
   -2.6099    5.0583  -21.9234 N   0  0  0  0  0  0  0  0  0  0  0  0
   -3.1932    5.6975  -20.8829 C   0  0  0  0  0  0  0  0  0  0  0  0
   -7.4466    5.4152  -10.6973 C   0  0  0  0  0  0  0  0  0  0  0  0
   -7.6270    5.4509   -9.3175 C   0  0  0  0  0  0  0  0  0  0  0  0
   -8.1865    4.3374   -8.7335 C   0  0  0  0  0  0  0  0  0  0  0  0
   -8.5205    4.1301   -7.3262 C   0  0  0  0  0  0  0  0  0  0  0  0
   -8.2684    4.9138   -6.4292 O   0  0  0  0  0  0  0  0  0  0  0  0
  1  2  1  0
  2  3  1  0
  3  4  1  0
  4  5  1  0
  5  6  2  0
  6  7  1  0
  7  8  1  0
  8  9  1  0
  9 10  2  0
  9 11  1  0
 11 12  2  0
 12 13  1  0
 13 14  1  0
 14 15  1  0
 15 16  1  0
 13 17  2  0
 17 18  1  0
 18 19  2  0
 19 20  1  0
 20 21  2  0
 21 22  1  0
 22 23  1  0
 23 24  1  0
 24 25  2  0
 25 26  1  0
 26 27  2  0
 27 28  1  0
 28 29  2  0
  7 30  2  0
 30 31  1  0
 31 32  2  0
 32 33  1  0
 33 34  2  0
 33  3  1  0
 32  5  1  0
 19 11  1  0
 29 24  1  0
 16 14  1  0
 22 18  1  0
M  END
>  <name>  (799) 
P125742

>  <alias>  (799) 
None

>  <smina_score_min>  (799) 
-9.905

>  <exports>  (799) 
['/opt/xchem-fragalysis-2/maxwin/BulkDock/OUTPUTS/openbind_xx01zvns2b_c2_elabs_1LOUTNY.sdf', '/opt/xchem-fragalysis-2/maxwin/BulkDock/OUTPUTS/openbind_xx01zvns2b_c2_elabs_1LSYIIV.sdf']

>  <tags>  (799) 
syndirella_placed,openbind_xx01zvns2b_c2_elabs,openbind_xx01zvns2b_c2_elabs_scored_6.2plus,syndirella_product,openbind_xx01zvns2b_c2_elabs_scored,openbind_xx01zvns2b_c2_elabs_scored_top80percent,BulkDock Fragalysis export

>  <subsites>  (799) 
1 - Z4590/B/203/1

>  <smiles>  (799) 
CCN1Cc2cc(NC(=O)c3cc(C4CC4)nc4c3cnn4Cc3cccnc3)ccc2C1=O

>  <HIPPO Pose ID>  (799) 
125742

>  <energy_score>  (799) 
-39.676289

>  <inchikey>  (799) 
IRRSEELRSBZHHC-UHFFFAOYSA-N

>  <gnina_score_min>  (799) 
6.63

>  <gnina_score>  (799) 
6.506

>  <ref_mols>  (799) 
Z3559a

>  <HIPPO Compound ID>  (799) 
187876

>  <distance_score>  (799) 
0.506662

>  <rmsd(smina/fragmenstein)>  (799) 
0.37

>  <ref_pdb>  (799) 
Z3559a

>  <inspiration_score>  (799) 
None

$$$$
P125743
     RDKit          3D

 34 39  0  0  0  0  0  0  0  0999 V2000
  -10.0386    2.1206   -6.0878 C   0  0  0  0  0  0  0  0  0  0  0  0
   -9.3168    2.6672   -7.2070 N   0  0  0  0  0  0  0  0  0  0  0  0
   -8.6546    3.8595   -7.1873 C   0  0  0  0  0  0  0  0  0  0  0  0
   -8.4610    4.6328   -6.2658 O   0  0  0  0  0  0  0  0  0  0  0  0
   -8.2428    4.1213   -8.5651 C   0  0  0  0  0  0  0  0  0  0  0  0
   -7.6014    5.2125   -9.1093 C   0  0  0  0  0  0  0  0  0  0  0  0
   -7.4007    5.2103  -10.4944 C   0  0  0  0  0  0  0  0  0  0  0  0
   -7.8439    4.1376  -11.2991 C   0  0  0  0  0  0  0  0  0  0  0  0
   -7.6352    4.1568  -12.6777 N   0  0  0  0  0  0  0  0  0  0  0  0
   -6.9118    5.1947  -13.5712 C   0  0  0  0  0  0  0  0  0  0  0  0
   -6.3119    6.1552  -13.2825 O   0  0  0  0  0  0  0  0  0  0  0  0
   -7.0183    4.8798  -15.0215 C   0  0  0  0  0  0  0  0  0  0  0  0
   -8.1826    4.3626  -15.6094 C   0  0  0  0  0  0  0  0  0  0  0  0
   -8.2769    4.2362  -17.0019 C   0  0  0  0  0  0  0  0  0  0  0  0
   -9.5638    3.7594  -17.6361 C   0  0  0  0  0  0  0  0  0  0  0  0
   -9.5264    2.6158  -18.6206 C   0  0  0  0  0  0  0  0  0  0  0  0
   -9.8465    3.9995  -19.0989 C   0  0  0  0  0  0  0  0  0  0  0  0
   -7.2739    4.5994  -17.8320 N   0  0  0  0  0  0  0  0  0  0  0  0
   -6.1846    5.0993  -17.2373 C   0  0  0  0  0  0  0  0  0  0  0  0
   -5.9774    5.2631  -15.8822 C   0  0  0  0  0  0  0  0  0  0  0  0
   -4.6981    5.8566  -15.8030 C   0  0  0  0  0  0  0  0  0  0  0  0
   -4.1575    6.1051  -17.0039 N   0  0  0  0  0  0  0  0  0  0  0  0
   -5.0989    5.6478  -17.8707 N   0  0  0  0  0  0  0  0  0  0  0  0
   -5.0979    6.0786  -19.2630 C   0  0  0  0  0  0  0  0  0  0  0  0
   -4.0141    5.5000  -20.1231 C   0  0  0  0  0  0  0  0  0  0  0  0
   -4.3343    4.7993  -21.2927 C   0  0  0  0  0  0  0  0  0  0  0  0
   -3.3211    4.3751  -22.1448 C   0  0  0  0  0  0  0  0  0  0  0  0
   -2.0138    4.6763  -21.8035 C   0  0  0  0  0  0  0  0  0  0  0  0
   -1.6593    5.3403  -20.6822 N   0  0  0  0  0  0  0  0  0  0  0  0
   -2.6662    5.7348  -19.8669 C   0  0  0  0  0  0  0  0  0  0  0  0
   -8.5031    3.0488  -10.7215 C   0  0  0  0  0  0  0  0  0  0  0  0
   -8.6832    3.0727   -9.3486 C   0  0  0  0  0  0  0  0  0  0  0  0
   -9.3954    2.1497   -8.4704 C   0  0  0  0  0  0  0  0  0  0  0  0
   -9.9948    1.1720   -8.8673 O   0  0  0  0  0  0  0  0  0  0  0  0
  1  2  1  0
  2  3  1  0
  3  4  2  0
  3  5  1  0
  5  6  2  0
  6  7  1  0
  7  8  2  0
  8  9  1  0
  9 10  1  0
 10 11  2  0
 10 12  1  0
 12 13  2  0
 13 14  1  0
 14 15  1  0
 15 16  1  0
 16 17  1  0
 14 18  2  0
 18 19  1  0
 19 20  2  0
 20 21  1  0
 21 22  2  0
 22 23  1  0
 23 24  1  0
 24 25  1  0
 25 26  2  0
 26 27  1  0
 27 28  2  0
 28 29  1  0
 29 30  2  0
  8 31  1  0
 31 32  2  0
 32 33  1  0
 33 34  2  0
 33  2  1  0
 32  5  1  0
 20 12  1  0
 30 25  1  0
 17 15  1  0
 23 19  1  0
M  END
>  <name>  (800) 
P125743

>  <alias>  (800) 
None

>  <smina_score_min>  (800) 
-9.818

>  <exports>  (800) 
['/opt/xchem-fragalysis-2/maxwin/BulkDock/OUTPUTS/openbind_xx01zvns2b_c2_elabs_1LOUTNY.sdf', '/opt/xchem-fragalysis-2/maxwin/BulkDock/OUTPUTS/openbind_xx01zvns2b_c2_elabs_1LSYIIV.sdf']

>  <tags>  (800) 
syndirella_placed,openbind_xx01zvns2b_c2_elabs,openbind_xx01zvns2b_c2_elabs_scored_6.2plus,syndirella_product,openbind_xx01zvns2b_c2_elabs_scored,openbind_xx01zvns2b_c2_elabs_scored_top80percent,BulkDock Fragalysis export

>  <subsites>  (800) 
1 - Z4590/B/203/1

>  <smiles>  (800) 
CN1C(=O)c2ccc(NC(=O)c3cc(C4CC4)nc4c3cnn4Cc3cccnc3)cc2C1=O

>  <HIPPO Pose ID>  (800) 
125743

>  <energy_score>  (800) 
-27.778347

>  <inchikey>  (800) 
OSZQQWOFBHWEEU-UHFFFAOYSA-N

>  <gnina_score_min>  (800) 
6.438

>  <gnina_score>  (800) 
6.509

>  <ref_mols>  (800) 
Z3559a

>  <HIPPO Compound ID>  (800) 
187877

>  <distance_score>  (800) 
0.407545

>  <rmsd(smina/fragmenstein)>  (800) 
0.562

>  <ref_pdb>  (800) 
Z3559a

>  <inspiration_score>  (800) 
None

$$$$
P125744
     RDKit          3D

 34 39  0  0  0  0  0  0  0  0999 V2000
   -9.9804    4.6015   -4.7578 C   0  0  0  0  0  0  0  0  0  0  0  0
   -9.6586    3.1305   -4.9593 C   0  0  0  0  0  0  0  0  0  0  0  0
   -9.8782    2.5576   -6.3656 C   0  0  0  0  0  0  0  0  0  0  0  0
   -8.8290    2.8763   -7.3169 N   0  0  0  0  0  0  0  0  0  0  0  0
   -8.5403    4.2917   -7.5094 C   0  0  0  0  0  0  0  0  0  0  0  0
   -8.2430    4.4463   -8.9566 C   0  0  0  0  0  0  0  0  0  0  0  0
   -7.8150    5.5793   -9.6120 C   0  0  0  0  0  0  0  0  0  0  0  0
   -7.6402    5.5013  -10.9892 C   0  0  0  0  0  0  0  0  0  0  0  0
   -7.8947    4.3096  -11.6946 C   0  0  0  0  0  0  0  0  0  0  0  0
   -7.6393    4.2749  -13.0682 N   0  0  0  0  0  0  0  0  0  0  0  0
   -7.2349    5.4037  -14.0425 C   0  0  0  0  0  0  0  0  0  0  0  0
   -6.9768    6.5249  -13.8376 O   0  0  0  0  0  0  0  0  0  0  0  0
   -7.0582    4.9510  -15.4373 C   0  0  0  0  0  0  0  0  0  0  0  0
   -8.0891    4.3923  -16.2083 C   0  0  0  0  0  0  0  0  0  0  0  0
   -7.9246    4.2797  -17.6021 C   0  0  0  0  0  0  0  0  0  0  0  0
   -8.9645    3.7705  -18.5640 C   0  0  0  0  0  0  0  0  0  0  0  0
  -10.4203    3.6460  -18.2641 C   0  0  0  0  0  0  0  0  0  0  0  0
   -9.5533    2.4124  -18.3458 C   0  0  0  0  0  0  0  0  0  0  0  0
   -6.8063    4.6882  -18.2358 N   0  0  0  0  0  0  0  0  0  0  0  0
   -5.8548    5.2031  -17.4592 C   0  0  0  0  0  0  0  0  0  0  0  0
   -5.8817    5.3451  -16.0916 C   0  0  0  0  0  0  0  0  0  0  0  0
   -4.6506    5.9687  -15.7896 C   0  0  0  0  0  0  0  0  0  0  0  0
   -3.9244    6.2514  -16.8817 N   0  0  0  0  0  0  0  0  0  0  0  0
   -4.7216    5.8297  -17.8970 N   0  0  0  0  0  0  0  0  0  0  0  0
   -4.5911    6.4072  -19.2248 C   0  0  0  0  0  0  0  0  0  0  0  0
   -3.6149    5.7177  -20.1229 C   0  0  0  0  0  0  0  0  0  0  0  0
   -4.0518    4.9597  -21.2145 C   0  0  0  0  0  0  0  0  0  0  0  0
   -3.1209    4.4452  -22.1084 C   0  0  0  0  0  0  0  0  0  0  0  0
   -1.7812    4.7120  -21.8797 C   0  0  0  0  0  0  0  0  0  0  0  0
   -1.3159    5.4168  -20.8233 N   0  0  0  0  0  0  0  0  0  0  0  0
   -2.2439    5.8945  -19.9632 C   0  0  0  0  0  0  0  0  0  0  0  0
   -8.3472    3.1735  -11.0125 C   0  0  0  0  0  0  0  0  0  0  0  0
   -8.5148    3.2608   -9.6347 C   0  0  0  0  0  0  0  0  0  0  0  0
   -9.0151    2.2457   -8.6475 C   0  0  0  0  0  0  0  0  0  0  0  0
  1  2  1  0
  2  3  1  0
  3  4  1  0
  4  5  1  0
  5  6  1  0
  6  7  2  0
  7  8  1  0
  8  9  2  0
  9 10  1  0
 10 11  1  0
 11 12  2  0
 11 13  1  0
 13 14  2  0
 14 15  1  0
 15 16  1  0
 16 17  1  0
 17 18  1  0
 15 19  2  0
 19 20  1  0
 20 21  2  0
 21 22  1  0
 22 23  2  0
 23 24  1  0
 24 25  1  0
 25 26  1  0
 26 27  2  0
 27 28  1  0
 28 29  2  0
 29 30  1  0
 30 31  2  0
  9 32  1  0
 32 33  2  0
 33 34  1  0
 34  4  1  0
 33  6  1  0
 21 13  1  0
 31 26  1  0
 18 16  1  0
 24 20  1  0
M  END
>  <name>  (801) 
P125744

>  <alias>  (801) 
None

>  <smina_score_min>  (801) 
-9.582

>  <exports>  (801) 
['/opt/xchem-fragalysis-2/maxwin/BulkDock/OUTPUTS/openbind_xx01zvns2b_c2_elabs_1LOUTNY.sdf', '/opt/xchem-fragalysis-2/maxwin/BulkDock/OUTPUTS/openbind_xx01zvns2b_c2_elabs_1LSYIIV.sdf']

>  <tags>  (801) 
syndirella_placed,openbind_xx01zvns2b_c2_elabs,openbind_xx01zvns2b_c2_elabs_scored_6.2plus,syndirella_product,openbind_xx01zvns2b_c2_elabs_scored,openbind_xx01zvns2b_c2_elabs_scored_top80percent,BulkDock Fragalysis export

>  <subsites>  (801) 
1 - Z4590/B/203/1

>  <smiles>  (801) 
CCCN1Cc2ccc(NC(=O)c3cc(C4CC4)nc4c3cnn4Cc3cccnc3)cc2C1

>  <HIPPO Pose ID>  (801) 
125744

>  <energy_score>  (801) 
-16.515327

>  <inchikey>  (801) 
LBSLODDJEBDGMQ-UHFFFAOYSA-N

>  <gnina_score_min>  (801) 
6.669

>  <gnina_score>  (801) 
6.608

>  <ref_mols>  (801) 
Z3559a

>  <HIPPO Compound ID>  (801) 
187879

>  <distance_score>  (801) 
0.734134

>  <rmsd(smina/fragmenstein)>  (801) 
0.569

>  <ref_pdb>  (801) 
Z3559a

>  <inspiration_score>  (801) 
None

$$$$
P125745
     RDKit          3D

 34 39  0  0  0  0  0  0  0  0999 V2000
  -10.6945    2.6723   -5.3558 C   0  0  0  0  0  0  0  0  0  0  0  0
   -9.8980    1.9072   -6.3886 C   0  0  0  0  0  0  0  0  0  0  0  0
   -9.4729    2.7378   -7.4834 N   0  0  0  0  0  0  0  0  0  0  0  0
   -8.6474    3.9164   -7.3126 C   0  0  0  0  0  0  0  0  0  0  0  0
   -8.2608    4.2370   -8.7158 C   0  0  0  0  0  0  0  0  0  0  0  0
   -7.5857    5.3207   -9.2354 C   0  0  0  0  0  0  0  0  0  0  0  0
   -7.3696    5.3541  -10.6198 C   0  0  0  0  0  0  0  0  0  0  0  0
   -7.8149    4.3099  -11.4544 C   0  0  0  0  0  0  0  0  0  0  0  0
   -7.6005    4.3303  -12.8240 N   0  0  0  0  0  0  0  0  0  0  0  0
   -6.9038    5.3791  -13.7129 C   0  0  0  0  0  0  0  0  0  0  0  0
   -6.3324    6.3546  -13.4254 O   0  0  0  0  0  0  0  0  0  0  0  0
   -7.0030    5.0192  -15.1449 C   0  0  0  0  0  0  0  0  0  0  0  0
   -8.1698    4.4950  -15.7181 C   0  0  0  0  0  0  0  0  0  0  0  0
   -8.2377    4.2741  -17.0977 C   0  0  0  0  0  0  0  0  0  0  0  0
   -9.5281    3.7777  -17.7112 C   0  0  0  0  0  0  0  0  0  0  0  0
   -9.8108    3.9710  -19.1791 C   0  0  0  0  0  0  0  0  0  0  0  0
   -9.5011    2.6011  -18.6547 C   0  0  0  0  0  0  0  0  0  0  0  0
   -7.2042    4.5527  -17.9271 N   0  0  0  0  0  0  0  0  0  0  0  0
   -6.1140    5.0616  -17.3381 C   0  0  0  0  0  0  0  0  0  0  0  0
   -5.9309    5.3072  -15.9925 C   0  0  0  0  0  0  0  0  0  0  0  0
   -4.6220    5.8261  -15.9026 C   0  0  0  0  0  0  0  0  0  0  0  0
   -4.0182    5.9207  -17.0939 N   0  0  0  0  0  0  0  0  0  0  0  0
   -4.9758    5.4965  -17.9589 N   0  0  0  0  0  0  0  0  0  0  0  0
   -4.7724    5.5987  -19.3965 C   0  0  0  0  0  0  0  0  0  0  0  0
   -4.8960    7.0007  -19.9476 C   0  0  0  0  0  0  0  0  0  0  0  0
   -4.5937    7.2346  -21.2952 C   0  0  0  0  0  0  0  0  0  0  0  0
   -4.7005    8.5177  -21.8257 C   0  0  0  0  0  0  0  0  0  0  0  0
   -5.1381    9.5354  -20.9967 C   0  0  0  0  0  0  0  0  0  0  0  0
   -5.4825    9.3525  -19.7041 N   0  0  0  0  0  0  0  0  0  0  0  0
   -5.3221    8.0999  -19.2061 C   0  0  0  0  0  0  0  0  0  0  0  0
   -8.4958    3.2222  -10.9253 C   0  0  0  0  0  0  0  0  0  0  0  0
   -8.7065    3.2271   -9.5653 C   0  0  0  0  0  0  0  0  0  0  0  0
   -9.4573    2.2621   -8.7777 C   0  0  0  0  0  0  0  0  0  0  0  0
   -9.9812    1.2688   -9.2333 O   0  0  0  0  0  0  0  0  0  0  0  0
  1  2  1  0
  2  3  1  0
  3  4  1  0
  4  5  1  0
  5  6  2  0
  6  7  1  0
  7  8  2  0
  8  9  1  0
  9 10  1  0
 10 11  2  0
 10 12  1  0
 12 13  2  0
 13 14  1  0
 14 15  1  0
 15 16  1  0
 16 17  1  0
 14 18  2  0
 18 19  1  0
 19 20  2  0
 20 21  1  0
 21 22  2  0
 22 23  1  0
 23 24  1  0
 24 25  1  0
 25 26  2  0
 26 27  1  0
 27 28  2  0
 28 29  1  0
 29 30  2  0
  8 31  1  0
 31 32  2  0
 32 33  1  0
 33 34  2  0
 33  3  1  0
 32  5  1  0
 20 12  1  0
 30 25  1  0
 17 15  1  0
 23 19  1  0
M  END
>  <name>  (802) 
P125745

>  <alias>  (802) 
None

>  <smina_score_min>  (802) 
-9.008

>  <exports>  (802) 
['/opt/xchem-fragalysis-2/maxwin/BulkDock/OUTPUTS/openbind_xx01zvns2b_c2_elabs_1LOUTNY.sdf', '/opt/xchem-fragalysis-2/maxwin/BulkDock/OUTPUTS/openbind_xx01zvns2b_c2_elabs_1LSYIIV.sdf']

>  <tags>  (802) 
syndirella_placed,openbind_xx01zvns2b_c2_elabs,openbind_xx01zvns2b_c2_elabs_scored_6.2plus,syndirella_product,openbind_xx01zvns2b_c2_elabs_scored,openbind_xx01zvns2b_c2_elabs_scored_top80percent,BulkDock Fragalysis export

>  <subsites>  (802) 
1 - Z4590/B/203/1

>  <smiles>  (802) 
CCN1Cc2ccc(NC(=O)c3cc(C4CC4)nc4c3cnn4Cc3cccnc3)cc2C1=O

>  <HIPPO Pose ID>  (802) 
125745

>  <energy_score>  (802) 
-50.865565

>  <inchikey>  (802) 
ZOGWUTOJLKLVFS-UHFFFAOYSA-N

>  <gnina_score_min>  (802) 
6.467

>  <gnina_score>  (802) 
6.53

>  <ref_mols>  (802) 
Z3559a

>  <HIPPO Compound ID>  (802) 
187880

>  <distance_score>  (802) 
0.485141

>  <rmsd(smina/fragmenstein)>  (802) 
0.337

>  <ref_pdb>  (802) 
Z3559a

>  <inspiration_score>  (802) 
None

$$$$
P125746
     RDKit          3D

 34 39  0  0  0  0  0  0  0  0999 V2000
   -9.9894    2.4816   -5.9583 C   0  0  0  0  0  0  0  0  0  0  0  0
   -8.8808    2.8964   -6.8005 N   0  0  0  0  0  0  0  0  0  0  0  0
   -9.0005    2.3157   -8.1648 C   0  0  0  0  0  0  0  0  0  0  0  0
   -8.6236    3.4103   -9.1094 C   0  0  0  0  0  0  0  0  0  0  0  0
   -8.4454    3.3444  -10.4910 C   0  0  0  0  0  0  0  0  0  0  0  0
   -8.0690    4.5071  -11.1705 C   0  0  0  0  0  0  0  0  0  0  0  0
   -7.8128    4.4612  -12.5447 N   0  0  0  0  0  0  0  0  0  0  0  0
   -7.3374    5.5699  -13.5173 C   0  0  0  0  0  0  0  0  0  0  0  0
   -7.0122    6.6731  -13.3078 O   0  0  0  0  0  0  0  0  0  0  0  0
   -7.2314    5.0986  -14.9202 C   0  0  0  0  0  0  0  0  0  0  0  0
   -8.2501    4.3883  -15.5698 C   0  0  0  0  0  0  0  0  0  0  0  0
   -8.1323    4.0872  -16.9346 C   0  0  0  0  0  0  0  0  0  0  0  0
   -9.1604    3.2333  -17.6264 C   0  0  0  0  0  0  0  0  0  0  0  0
   -9.1853    3.1705  -19.1332 C   0  0  0  0  0  0  0  0  0  0  0  0
  -10.3147    3.8224  -18.3997 C   0  0  0  0  0  0  0  0  0  0  0  0
   -7.0793    4.4824  -17.6836 N   0  0  0  0  0  0  0  0  0  0  0  0
   -6.1330    5.1580  -17.0251 C   0  0  0  0  0  0  0  0  0  0  0  0
   -6.1209    5.4862  -15.6852 C   0  0  0  0  0  0  0  0  0  0  0  0
   -4.9107    6.1941  -15.5221 C   0  0  0  0  0  0  0  0  0  0  0  0
   -4.2210    6.3249  -16.6631 N   0  0  0  0  0  0  0  0  0  0  0  0
   -4.9983    5.6920  -17.5745 N   0  0  0  0  0  0  0  0  0  0  0  0
   -4.7143    5.6783  -19.0056 C   0  0  0  0  0  0  0  0  0  0  0  0
   -3.3993    6.2878  -19.3982 C   0  0  0  0  0  0  0  0  0  0  0  0
   -2.2152    5.5464  -19.4220 C   0  0  0  0  0  0  0  0  0  0  0  0
   -1.0269    6.1610  -19.8050 C   0  0  0  0  0  0  0  0  0  0  0  0
   -1.0598    7.5004  -20.1539 C   0  0  0  0  0  0  0  0  0  0  0  0
   -2.1806    8.2531  -20.1396 N   0  0  0  0  0  0  0  0  0  0  0  0
   -3.3171    7.6325  -19.7487 C   0  0  0  0  0  0  0  0  0  0  0  0
   -7.9129    5.7070  -10.4581 C   0  0  0  0  0  0  0  0  0  0  0  0
   -8.1019    5.7591   -9.0716 C   0  0  0  0  0  0  0  0  0  0  0  0
   -8.4501    4.5986   -8.4001 C   0  0  0  0  0  0  0  0  0  0  0  0
   -8.5870    4.3495   -6.9127 C   0  0  0  0  0  0  0  0  0  0  0  0
   -9.5710    5.2902   -6.1887 C   0  0  0  0  0  0  0  0  0  0  0  0
   -7.2135    4.6251   -6.2657 C   0  0  0  0  0  0  0  0  0  0  0  0
  1  2  1  0
  2  3  1  0
  3  4  1  0
  4  5  2  0
  5  6  1  0
  6  7  1  0
  7  8  1  0
  8  9  2  0
  8 10  1  0
 10 11  2  0
 11 12  1  0
 12 13  1  0
 13 14  1  0
 14 15  1  0
 12 16  2  0
 16 17  1  0
 17 18  2  0
 18 19  1  0
 19 20  2  0
 20 21  1  0
 21 22  1  0
 22 23  1  0
 23 24  2  0
 24 25  1  0
 25 26  2  0
 26 27  1  0
 27 28  2  0
  6 29  2  0
 29 30  1  0
 30 31  2  0
 31 32  1  0
 32 33  1  0
 32 34  1  0
 32  2  1  0
 31  4  1  0
 18 10  1  0
 28 23  1  0
 15 13  1  0
 21 17  1  0
M  END
>  <name>  (803) 
P125746

>  <alias>  (803) 
None

>  <smina_score_min>  (803) 
-8.853

>  <exports>  (803) 
['/opt/xchem-fragalysis-2/maxwin/BulkDock/OUTPUTS/openbind_xx01zvns2b_c2_elabs_1LOUTNY.sdf', '/opt/xchem-fragalysis-2/maxwin/BulkDock/OUTPUTS/openbind_xx01zvns2b_c2_elabs_1LSYIIV.sdf']

>  <tags>  (803) 
syndirella_placed,openbind_xx01zvns2b_c2_elabs,openbind_xx01zvns2b_c2_elabs_scored_6.2plus,syndirella_product,openbind_xx01zvns2b_c2_elabs_scored,openbind_xx01zvns2b_c2_elabs_scored_top80percent,BulkDock Fragalysis export

>  <subsites>  (803) 
1 - Z4590/B/203/1

>  <smiles>  (803) 
CN1Cc2cc(NC(=O)c3cc(C4CC4)nc4c3cnn4Cc3cccnc3)ccc2C1(C)C

>  <HIPPO Pose ID>  (803) 
125746

>  <energy_score>  (803) 
-47.058097

>  <inchikey>  (803) 
KDCURFZTDJWKRV-UHFFFAOYSA-N

>  <gnina_score_min>  (803) 
6.365

>  <gnina_score>  (803) 
6.455

>  <ref_mols>  (803) 
Z3559a

>  <HIPPO Compound ID>  (803) 
187881

>  <distance_score>  (803) 
0.587705

>  <rmsd(smina/fragmenstein)>  (803) 
1.048

>  <ref_pdb>  (803) 
Z3559a

>  <inspiration_score>  (803) 
None

$$$$
P125748
     RDKit          3D

 34 39  0  0  0  0  0  0  0  0999 V2000
   -3.9319    6.0491  -14.4181 C   0  0  0  0  0  0  0  0  0  0  0  0
   -4.7164    5.7713  -15.6485 C   0  0  0  0  0  0  0  0  0  0  0  0
   -4.1643    6.0278  -16.8473 N   0  0  0  0  0  0  0  0  0  0  0  0
   -5.1354    5.7066  -17.7241 N   0  0  0  0  0  0  0  0  0  0  0  0
   -5.0896    6.1883  -19.0894 C   0  0  2  0  0  0  0  0  0  0  0  0
   -4.5778    5.1685  -20.1060 C   0  0  0  0  0  0  0  0  0  0  0  0
   -4.4968    5.9025  -21.4407 C   0  0  0  0  0  0  0  0  0  0  0  0
   -4.0900    7.5948  -21.0350 S   0  0  0  0  0  0  0  0  0  0  0  0
   -2.7117    7.8523  -21.3918 O   0  0  0  0  0  0  0  0  0  0  0  0
   -5.1690    8.4594  -21.4716 O   0  0  0  0  0  0  0  0  0  0  0  0
   -4.2117    7.4252  -19.2732 C   0  0  0  0  0  0  0  0  0  0  0  0
   -6.2247    5.1311  -17.1320 C   0  0  0  0  0  0  0  0  0  0  0  0
   -7.2976    4.6511  -17.7705 N   0  0  0  0  0  0  0  0  0  0  0  0
   -8.3208    4.2634  -16.9757 C   0  0  0  0  0  0  0  0  0  0  0  0
   -9.5848    3.7824  -17.6532 C   0  0  0  0  0  0  0  0  0  0  0  0
   -9.5157    2.6221  -18.6161 C   0  0  0  0  0  0  0  0  0  0  0  0
   -9.8077    3.9991  -19.1296 C   0  0  0  0  0  0  0  0  0  0  0  0
   -8.2732    4.3819  -15.5805 C   0  0  0  0  0  0  0  0  0  0  0  0
   -7.1290    4.8933  -14.9496 C   0  0  0  0  0  0  0  0  0  0  0  0
   -7.1306    5.2704  -13.5112 C   0  0  0  0  0  0  0  0  0  0  0  0
   -6.6184    6.2864  -13.2454 O   0  0  0  0  0  0  0  0  0  0  0  0
   -7.8632    4.2472  -12.6054 N   0  0  0  0  0  0  0  0  0  0  0  0
   -8.0290    4.2182  -11.2092 C   0  0  0  0  0  0  0  0  0  0  0  0
   -8.6252    3.0879  -10.6343 C   0  0  0  0  0  0  0  0  0  0  0  0
   -8.7787    3.0659   -9.2537 C   0  0  0  0  0  0  0  0  0  0  0  0
   -8.3502    4.1013   -8.4246 C   0  0  0  0  0  0  0  0  0  0  0  0
   -7.7772    5.2269   -8.9742 C   0  0  0  0  0  0  0  0  0  0  0  0
   -7.6289    5.2799  -10.3643 C   0  0  0  0  0  0  0  0  0  0  0  0
   -7.0907    6.4027  -10.8542 F   0  0  0  0  0  0  0  0  0  0  0  0
   -8.6286    3.7710   -6.9982 C   0  0  0  0  0  0  0  0  0  0  0  0
   -9.3010    2.5070   -7.0945 N   0  0  0  0  0  0  0  0  0  0  0  0
   -9.4074    2.0562   -8.3926 C   0  0  0  0  0  0  0  0  0  0  0  0
   -9.9599    1.0433   -8.7606 O   0  0  0  0  0  0  0  0  0  0  0  0
   -6.0390    5.2521  -15.7670 C   0  0  0  0  0  0  0  0  0  0  0  0
  1  2  1  0
  2  3  2  0
  3  4  1  0
  5  4  1  1
  5  6  1  0
  6  7  1  0
  7  8  1  0
  8  9  2  0
  8 10  2  0
  8 11  1  0
  4 12  1  0
 12 13  2  0
 13 14  1  0
 14 15  1  0
 15 16  1  0
 16 17  1  0
 14 18  2  0
 18 19  1  0
 19 20  1  0
 20 21  2  0
 20 22  1  0
 22 23  1  0
 23 24  2  0
 24 25  1  0
 25 26  2  0
 26 27  1  0
 27 28  2  0
 28 29  1  0
 26 30  1  0
 30 31  1  0
 31 32  1  0
 32 33  2  0
 19 34  2  0
 34  2  1  0
 11  5  1  0
 34 12  1  0
 17 15  1  0
 28 23  1  0
 32 25  1  0
M  END
>  <name>  (804) 
P125748

>  <alias>  (804) 
None

>  <smina_score_min>  (804) 
-9.639

>  <exports>  (804) 
['/opt/xchem-fragalysis-2/maxwin/BulkDock/OUTPUTS/openbind_xx01zvns2b_c2_elabs_1LOUTNY.sdf', '/opt/xchem-fragalysis-2/maxwin/BulkDock/OUTPUTS/openbind_xx01zvns2b_c2_elabs_1LSYIIV.sdf']

>  <tags>  (804) 
syndirella_placed,openbind_xx01zvns2b_c2_elabs,openbind_xx01zvns2b_c2_elabs_scored_6.2plus,syndirella_product,openbind_xx01zvns2b_c2_elabs_scored,openbind_xx01zvns2b_c2_elabs_scored_top80percent,BulkDock Fragalysis export

>  <subsites>  (804) 
1 - Z4590/B/203/1

>  <smiles>  (804) 
Cc1nn([C@@H]2CCS(=O)(=O)C2)c2nc(C3CC3)cc(C(=O)Nc3cc4c(cc3F)CNC4=O)c12

>  <HIPPO Pose ID>  (804) 
125748

>  <energy_score>  (804) 
-49.507612

>  <inchikey>  (804) 
RLZHYRWBRKUUSE-CQSZACIVSA-N

>  <gnina_score_min>  (804) 
6.563

>  <gnina_score>  (804) 
6.673

>  <ref_mols>  (804) 
Z3559a

>  <HIPPO Compound ID>  (804) 
187884

>  <distance_score>  (804) 
0.352432

>  <rmsd(smina/fragmenstein)>  (804) 
1.141

>  <ref_pdb>  (804) 
Z3559a

>  <inspiration_score>  (804) 
None

$$$$
P125751
     RDKit          3D

 34 39  0  0  0  0  0  0  0  0999 V2000
   -4.2243    6.3025  -14.1318 C   0  0  0  0  0  0  0  0  0  0  0  0
   -4.8738    5.8629  -15.3931 C   0  0  0  0  0  0  0  0  0  0  0  0
   -4.2040    5.9851  -16.5526 N   0  0  0  0  0  0  0  0  0  0  0  0
   -5.0486    5.4708  -17.4654 N   0  0  0  0  0  0  0  0  0  0  0  0
   -4.6874    5.3868  -18.8607 C   0  0  1  0  0  0  0  0  0  0  0  0
   -5.3012    6.5017  -19.7145 C   0  0  0  0  0  0  0  0  0  0  0  0
   -4.7844    6.2454  -21.1246 C   0  0  0  0  0  0  0  0  0  0  0  0
   -3.1131    5.6472  -20.9090 S   0  0  0  0  0  0  0  0  0  0  0  0
   -3.0153    4.3339  -21.5128 O   0  0  0  0  0  0  0  0  0  0  0  0
   -2.1995    6.7240  -21.2278 O   0  0  0  0  0  0  0  0  0  0  0  0
   -3.1876    5.4445  -19.1428 C   0  0  0  0  0  0  0  0  0  0  0  0
   -6.2375    5.0575  -16.9362 C   0  0  0  0  0  0  0  0  0  0  0  0
   -7.2645    4.5454  -17.6260 N   0  0  0  0  0  0  0  0  0  0  0  0
   -8.3641    4.2475  -16.8979 C   0  0  0  0  0  0  0  0  0  0  0  0
   -9.5943    3.7806  -17.6464 C   0  0  0  0  0  0  0  0  0  0  0  0
   -9.4955    2.6156  -18.6000 C   0  0  0  0  0  0  0  0  0  0  0  0
   -9.7239    3.9964  -19.1346 C   0  0  0  0  0  0  0  0  0  0  0  0
   -8.4154    4.4363  -15.5113 C   0  0  0  0  0  0  0  0  0  0  0  0
   -7.3167    4.9762  -14.8287 C   0  0  0  0  0  0  0  0  0  0  0  0
   -7.4009    5.3573  -13.3992 C   0  0  0  0  0  0  0  0  0  0  0  0
   -7.0348    6.4313  -13.1193 O   0  0  0  0  0  0  0  0  0  0  0  0
   -7.9644    4.2236  -12.5051 N   0  0  0  0  0  0  0  0  0  0  0  0
   -8.1001    4.1456  -11.1166 C   0  0  0  0  0  0  0  0  0  0  0  0
   -7.6155    5.1943  -10.3029 C   0  0  0  0  0  0  0  0  0  0  0  0
   -7.6708    5.1201   -8.9065 C   0  0  0  0  0  0  0  0  0  0  0  0
   -8.2336    3.9884   -8.3583 C   0  0  0  0  0  0  0  0  0  0  0  0
   -8.7498    2.9754   -9.1470 C   0  0  0  0  0  0  0  0  0  0  0  0
   -8.6868    3.0164  -10.5324 C   0  0  0  0  0  0  0  0  0  0  0  0
   -9.3219    1.9819   -8.2352 C   0  0  0  0  0  0  0  0  0  0  0  0
   -9.9645    1.0095   -8.5698 O   0  0  0  0  0  0  0  0  0  0  0  0
   -9.0567    2.4094   -6.9684 N   0  0  0  0  0  0  0  0  0  0  0  0
   -8.3955    3.5967   -6.9567 C   0  0  0  0  0  0  0  0  0  0  0  0
   -7.9813    4.2287   -6.0019 O   0  0  0  0  0  0  0  0  0  0  0  0
   -6.1725    5.3046  -15.5782 C   0  0  0  0  0  0  0  0  0  0  0  0
  1  2  1  0
  2  3  2  0
  3  4  1  0
  5  4  1  1
  5  6  1  0
  6  7  1  0
  7  8  1  0
  8  9  2  0
  8 10  2  0
  8 11  1  0
  4 12  1  0
 12 13  2  0
 13 14  1  0
 14 15  1  0
 15 16  1  0
 16 17  1  0
 14 18  2  0
 18 19  1  0
 19 20  1  0
 20 21  2  0
 20 22  1  0
 22 23  1  0
 23 24  2  0
 24 25  1  0
 25 26  2  0
 26 27  1  0
 27 28  2  0
 27 29  1  0
 29 30  2  0
 29 31  1  0
 31 32  1  0
 32 33  2  0
 19 34  2  0
 34  2  1  0
 11  5  1  0
 34 12  1  0
 17 15  1  0
 28 23  1  0
 32 26  1  0
M  END
>  <name>  (805) 
P125751

>  <alias>  (805) 
None

>  <smina_score_min>  (805) 
-10.061

>  <exports>  (805) 
['/opt/xchem-fragalysis-2/maxwin/BulkDock/OUTPUTS/openbind_xx01zvns2b_c2_elabs_1LOUTNY.sdf', '/opt/xchem-fragalysis-2/maxwin/BulkDock/OUTPUTS/openbind_xx01zvns2b_c2_elabs_1LSYIIV.sdf']

>  <tags>  (805) 
syndirella_placed,openbind_xx01zvns2b_c2_elabs,openbind_xx01zvns2b_c2_elabs_scored_6.2plus,syndirella_product,openbind_xx01zvns2b_c2_elabs_scored,openbind_xx01zvns2b_c2_elabs_scored_top80percent,BulkDock Fragalysis export

>  <subsites>  (805) 
1 - Z4590/B/203/1

>  <smiles>  (805) 
Cc1nn([C@H]2CCS(=O)(=O)C2)c2nc(C3CC3)cc(C(=O)Nc3ccc4c(c3)C(=O)NC4=O)c12

>  <HIPPO Pose ID>  (805) 
125751

>  <energy_score>  (805) 
-35.242724

>  <inchikey>  (805) 
RJZBIVQCXZYNGW-AWEZNQCLSA-N

>  <gnina_score_min>  (805) 
6.515

>  <gnina_score>  (805) 
6.64

>  <ref_mols>  (805) 
Z3559a

>  <HIPPO Compound ID>  (805) 
187885

>  <distance_score>  (805) 
0.369187

>  <rmsd(smina/fragmenstein)>  (805) 
0.573

>  <ref_pdb>  (805) 
Z3559a

>  <inspiration_score>  (805) 
None

$$$$
P125752
     RDKit          3D

 34 39  0  0  0  0  0  0  0  0999 V2000
   -1.7681    4.8329  -20.9500 C   0  0  0  0  0  0  0  0  0  0  0  0
   -2.9530    5.5738  -20.4225 C   0  0  0  0  0  0  0  0  0  0  0  0
   -3.4614    6.6554  -21.1043 C   0  0  0  0  0  0  0  0  0  0  0  0
   -4.5368    7.3024  -20.5278 C   0  0  0  0  0  0  0  0  0  0  0  0
   -5.0495    8.5590  -21.1619 C   0  0  0  0  0  0  0  0  0  0  0  0
   -5.1224    6.8816  -19.3851 N   0  0  0  0  0  0  0  0  0  0  0  0
   -4.5439    5.8157  -18.7754 C   0  0  0  0  0  0  0  0  0  0  0  0
   -4.9224    5.5338  -17.4321 N   0  0  0  0  0  0  0  0  0  0  0  0
   -4.0326    5.7472  -16.4109 N   0  0  0  0  0  0  0  0  0  0  0  0
   -4.7796    5.6740  -15.3040 C   0  0  0  0  0  0  0  0  0  0  0  0
   -4.1498    5.9348  -13.9842 C   0  0  0  0  0  0  0  0  0  0  0  0
   -6.1134    5.2820  -15.5878 C   0  0  0  0  0  0  0  0  0  0  0  0
   -7.2954    5.0170  -14.8817 C   0  0  0  0  0  0  0  0  0  0  0  0
   -7.4035    5.4150  -13.4627 C   0  0  0  0  0  0  0  0  0  0  0  0
   -7.0514    6.4922  -13.1829 O   0  0  0  0  0  0  0  0  0  0  0  0
   -7.9668    4.2840  -12.5751 N   0  0  0  0  0  0  0  0  0  0  0  0
   -8.1211    4.2102  -11.1905 C   0  0  0  0  0  0  0  0  0  0  0  0
   -7.8403    5.3300  -10.3812 C   0  0  0  0  0  0  0  0  0  0  0  0
   -7.9522    5.2605   -8.9899 C   0  0  0  0  0  0  0  0  0  0  0  0
   -8.3558    4.0588   -8.4478 C   0  0  0  0  0  0  0  0  0  0  0  0
   -8.6513    2.9454   -9.2308 C   0  0  0  0  0  0  0  0  0  0  0  0
   -8.5361    3.0047  -10.6120 C   0  0  0  0  0  0  0  0  0  0  0  0
   -9.0256    1.8026   -8.3478 C   0  0  0  0  0  0  0  0  0  0  0  0
   -9.0394    2.4034   -7.0297 N   0  0  0  0  0  0  0  0  0  0  0  0
   -8.5357    3.6867   -7.0389 C   0  0  0  0  0  0  0  0  0  0  0  0
   -8.2594    4.3829   -6.0801 O   0  0  0  0  0  0  0  0  0  0  0  0
   -8.3893    4.5098  -15.5849 C   0  0  0  0  0  0  0  0  0  0  0  0
   -8.3118    4.3423  -16.9709 C   0  0  0  0  0  0  0  0  0  0  0  0
   -9.5341    3.8500  -17.7228 C   0  0  0  0  0  0  0  0  0  0  0  0
   -9.6320    3.9939  -19.2197 C   0  0  0  0  0  0  0  0  0  0  0  0
   -9.4320    2.6382  -18.6151 C   0  0  0  0  0  0  0  0  0  0  0  0
   -7.2085    4.6839  -17.6832 N   0  0  0  0  0  0  0  0  0  0  0  0
   -6.1613    5.1386  -16.9663 C   0  0  0  0  0  0  0  0  0  0  0  0
   -3.4484    5.1730  -19.2397 N   0  0  0  0  0  0  0  0  0  0  0  0
  1  2  1  0
  2  3  2  0
  3  4  1  0
  4  5  1  0
  4  6  2  0
  6  7  1  0
  7  8  1  0
  8  9  1  0
  9 10  2  0
 10 11  1  0
 10 12  1  0
 12 13  2  0
 13 14  1  0
 14 15  2  0
 14 16  1  0
 16 17  1  0
 17 18  2  0
 18 19  1  0
 19 20  2  0
 20 21  1  0
 21 22  2  0
 21 23  1  0
 23 24  1  0
 24 25  1  0
 25 26  2  0
 13 27  1  0
 27 28  2  0
 28 29  1  0
 29 30  1  0
 30 31  1  0
 28 32  1  0
 32 33  2  0
  7 34  2  0
 34  2  1  0
 33  8  1  0
 33 12  1  0
 22 17  1  0
 31 29  1  0
 25 20  1  0
M  END
>  <name>  (806) 
P125752

>  <alias>  (806) 
None

>  <smina_score_min>  (806) 
-9.723

>  <exports>  (806) 
['/opt/xchem-fragalysis-2/maxwin/BulkDock/OUTPUTS/openbind_xx01zvns2b_c2_elabs_1LOUTNY.sdf', '/opt/xchem-fragalysis-2/maxwin/BulkDock/OUTPUTS/openbind_xx01zvns2b_c2_elabs_1LSYIIV.sdf']

>  <tags>  (806) 
syndirella_placed,openbind_xx01zvns2b_c2_elabs,openbind_xx01zvns2b_c2_elabs_scored_6.2plus,syndirella_product,openbind_xx01zvns2b_c2_elabs_scored,openbind_xx01zvns2b_c2_elabs_scored_top80percent,BulkDock Fragalysis export

>  <subsites>  (806) 
1 - Z4590/B/203/1

>  <smiles>  (806) 
Cc1cc(C)nc(-n2nc(C)c3c(C(=O)Nc4ccc5c(c4)CNC5=O)cc(C4CC4)nc32)n1

>  <HIPPO Pose ID>  (806) 
125752

>  <energy_score>  (806) 
-27.538715

>  <inchikey>  (806) 
SXCLOSKIUJCWRB-UHFFFAOYSA-N

>  <gnina_score_min>  (806) 
6.679

>  <gnina_score>  (806) 
6.718

>  <ref_mols>  (806) 
Z3559a

>  <HIPPO Compound ID>  (806) 
187886

>  <distance_score>  (806) 
0.374012

>  <rmsd(smina/fragmenstein)>  (806) 
0.7

>  <ref_pdb>  (806) 
Z3559a

>  <inspiration_score>  (806) 
None

$$$$
P125753
     RDKit          3D

 34 39  0  0  0  0  0  0  0  0999 V2000
   -1.0333    6.4106  -20.4863 C   0  0  0  0  0  0  0  0  0  0  0  0
   -2.4204    5.8718  -20.3158 C   0  0  0  0  0  0  0  0  0  0  0  0
   -3.0955    5.3208  -21.3803 C   0  0  0  0  0  0  0  0  0  0  0  0
   -4.3653    4.8454  -21.1227 C   0  0  0  0  0  0  0  0  0  0  0  0
   -5.1508    4.1862  -22.2069 C   0  0  0  0  0  0  0  0  0  0  0  0
   -4.9462    4.9199  -19.9091 N   0  0  0  0  0  0  0  0  0  0  0  0
   -4.2281    5.4728  -18.9184 C   0  0  0  0  0  0  0  0  0  0  0  0
   -4.7670    5.5294  -17.5897 N   0  0  0  0  0  0  0  0  0  0  0  0
   -3.9977    6.0485  -16.5762 N   0  0  0  0  0  0  0  0  0  0  0  0
   -4.7551    5.9680  -15.4846 C   0  0  0  0  0  0  0  0  0  0  0  0
   -4.2026    6.4366  -14.1878 C   0  0  0  0  0  0  0  0  0  0  0  0
   -6.0266    5.4210  -15.7685 C   0  0  0  0  0  0  0  0  0  0  0  0
   -7.2030    5.1403  -15.0693 C   0  0  0  0  0  0  0  0  0  0  0  0
   -7.3398    5.5755  -13.6722 C   0  0  0  0  0  0  0  0  0  0  0  0
   -7.1080    6.6848  -13.4018 O   0  0  0  0  0  0  0  0  0  0  0  0
   -7.7082    4.3858  -12.7709 N   0  0  0  0  0  0  0  0  0  0  0  0
   -7.9530    4.3306  -11.4077 C   0  0  0  0  0  0  0  0  0  0  0  0
   -7.7611    5.4588  -10.5899 C   0  0  0  0  0  0  0  0  0  0  0  0
   -7.9933    5.3943   -9.2151 C   0  0  0  0  0  0  0  0  0  0  0  0
   -8.4455    4.1988   -8.6980 C   0  0  0  0  0  0  0  0  0  0  0  0
   -8.6463    3.0849   -9.5154 C   0  0  0  0  0  0  0  0  0  0  0  0
   -8.3864    3.1222  -10.8687 C   0  0  0  0  0  0  0  0  0  0  0  0
   -9.1667    1.9581   -8.6888 C   0  0  0  0  0  0  0  0  0  0  0  0
   -9.6444    2.6286   -7.4599 N   0  0  0  0  0  0  0  0  0  0  0  0
   -9.5687    1.7478   -6.3207 C   0  0  0  0  0  0  0  0  0  0  0  0
   -8.8135    3.8376   -7.2963 C   0  0  0  0  0  0  0  0  0  0  0  0
   -8.2721    4.5521  -15.7387 C   0  0  0  0  0  0  0  0  0  0  0  0
   -8.1708    4.3001  -17.1052 C   0  0  0  0  0  0  0  0  0  0  0  0
   -9.4092    3.8086  -17.8321 C   0  0  0  0  0  0  0  0  0  0  0  0
   -9.4999    3.8903  -19.3325 C   0  0  0  0  0  0  0  0  0  0  0  0
   -9.3703    2.5554  -18.6647 C   0  0  0  0  0  0  0  0  0  0  0  0
   -7.0432    4.5720  -17.8123 N   0  0  0  0  0  0  0  0  0  0  0  0
   -6.0153    5.1208  -17.1244 C   0  0  0  0  0  0  0  0  0  0  0  0
   -2.9741    5.9624  -19.0940 N   0  0  0  0  0  0  0  0  0  0  0  0
  1  2  1  0
  2  3  2  0
  3  4  1  0
  4  5  1  0
  4  6  2  0
  6  7  1  0
  7  8  1  0
  8  9  1  0
  9 10  2  0
 10 11  1  0
 10 12  1  0
 12 13  2  0
 13 14  1  0
 14 15  2  0
 14 16  1  0
 16 17  1  0
 17 18  2  0
 18 19  1  0
 19 20  2  0
 20 21  1  0
 21 22  2  0
 21 23  1  0
 23 24  1  0
 24 25  1  0
 24 26  1  0
 13 27  1  0
 27 28  2  0
 28 29  1  0
 29 30  1  0
 30 31  1  0
 28 32  1  0
 32 33  2  0
  7 34  2  0
 34  2  1  0
 33  8  1  0
 33 12  1  0
 22 17  1  0
 31 29  1  0
 26 20  1  0
M  END
>  <name>  (807) 
P125753

>  <alias>  (807) 
None

>  <smina_score_min>  (807) 
-9.87

>  <exports>  (807) 
['/opt/xchem-fragalysis-2/maxwin/BulkDock/OUTPUTS/openbind_xx01zvns2b_c2_elabs_1LOUTNY.sdf', '/opt/xchem-fragalysis-2/maxwin/BulkDock/OUTPUTS/openbind_xx01zvns2b_c2_elabs_1LSYIIV.sdf']

>  <tags>  (807) 
syndirella_placed,openbind_xx01zvns2b_c2_elabs,openbind_xx01zvns2b_c2_elabs_scored_6.2plus,syndirella_product,openbind_xx01zvns2b_c2_elabs_scored,openbind_xx01zvns2b_c2_elabs_scored_top80percent,BulkDock Fragalysis export

>  <subsites>  (807) 
1 - Z4590/B/203/1

>  <smiles>  (807) 
Cc1cc(C)nc(-n2nc(C)c3c(C(=O)Nc4ccc5c(c4)CN(C)C5)cc(C4CC4)nc32)n1

>  <HIPPO Pose ID>  (807) 
125753

>  <energy_score>  (807) 
-44.345484

>  <inchikey>  (807) 
CQYWDLBJUGKBEW-UHFFFAOYSA-N

>  <gnina_score_min>  (807) 
6.707

>  <gnina_score>  (807) 
6.727

>  <ref_mols>  (807) 
Z3559a

>  <HIPPO Compound ID>  (807) 
187887

>  <distance_score>  (807) 
0.501266

>  <rmsd(smina/fragmenstein)>  (807) 
0.987

>  <ref_pdb>  (807) 
Z3559a

>  <inspiration_score>  (807) 
None

$$$$
P125754
     RDKit          3D

 34 39  0  0  0  0  0  0  0  0999 V2000
  -10.8132    2.9271   -5.4672 C   0  0  0  0  0  0  0  0  0  0  0  0
   -9.5649    2.2872   -6.0420 C   0  0  0  0  0  0  0  0  0  0  0  0
   -9.1605    2.8961   -7.2797 N   0  0  0  0  0  0  0  0  0  0  0  0
   -9.1404    2.1680   -8.5395 C   0  0  0  0  0  0  0  0  0  0  0  0
   -8.6276    3.2044   -9.4840 C   0  0  0  0  0  0  0  0  0  0  0  0
   -8.5021    3.1717  -10.8628 C   0  0  0  0  0  0  0  0  0  0  0  0
   -8.0400    4.3269  -11.5047 C   0  0  0  0  0  0  0  0  0  0  0  0
   -7.9147    4.3377  -12.8901 N   0  0  0  0  0  0  0  0  0  0  0  0
   -7.4557    5.4587  -13.8464 C   0  0  0  0  0  0  0  0  0  0  0  0
   -7.1840    6.5733  -13.6307 O   0  0  0  0  0  0  0  0  0  0  0  0
   -7.3180    4.9905  -15.2367 C   0  0  0  0  0  0  0  0  0  0  0  0
   -8.3338    4.3232  -15.9269 C   0  0  0  0  0  0  0  0  0  0  0  0
   -8.1645    4.0420  -17.2864 C   0  0  0  0  0  0  0  0  0  0  0  0
   -9.2409    3.3473  -18.0839 C   0  0  0  0  0  0  0  0  0  0  0  0
  -10.6246    3.9164  -18.2576 C   0  0  0  0  0  0  0  0  0  0  0  0
   -9.6464    4.0200  -19.3756 C   0  0  0  0  0  0  0  0  0  0  0  0
   -7.0520    4.3916  -17.9837 N   0  0  0  0  0  0  0  0  0  0  0  0
   -6.1128    5.0371  -17.2779 C   0  0  0  0  0  0  0  0  0  0  0  0
   -6.1560    5.3413  -15.9331 C   0  0  0  0  0  0  0  0  0  0  0  0
   -4.9218    5.9719  -15.6719 C   0  0  0  0  0  0  0  0  0  0  0  0
   -4.1406    6.0503  -16.7548 N   0  0  0  0  0  0  0  0  0  0  0  0
   -4.9279    5.5450  -17.7423 N   0  0  0  0  0  0  0  0  0  0  0  0
   -4.4404    5.4788  -19.1121 C   0  0  0  0  0  0  0  0  0  0  0  0
   -4.4960    6.7942  -19.8600 C   0  0  0  0  0  0  0  0  0  0  0  0
   -4.9937    6.8198  -21.1721 C   0  0  0  0  0  0  0  0  0  0  0  0
   -4.9856    7.9983  -21.9221 C   0  0  0  0  0  0  0  0  0  0  0  0
   -4.4812    9.1724  -21.3706 C   0  0  0  0  0  0  0  0  0  0  0  0
   -3.9754    9.1645  -20.0734 C   0  0  0  0  0  0  0  0  0  0  0  0
   -3.9731    7.9826  -19.3277 C   0  0  0  0  0  0  0  0  0  0  0  0
   -7.6943    5.4757  -10.7630 C   0  0  0  0  0  0  0  0  0  0  0  0
   -7.8092    5.4977   -9.3761 C   0  0  0  0  0  0  0  0  0  0  0  0
   -8.2781    4.3533   -8.7731 C   0  0  0  0  0  0  0  0  0  0  0  0
   -8.5680    4.1363   -7.3576 C   0  0  0  0  0  0  0  0  0  0  0  0
   -8.3387    4.9355   -6.4685 O   0  0  0  0  0  0  0  0  0  0  0  0
  1  2  1  0
  2  3  1  0
  3  4  1  0
  4  5  1  0
  5  6  2  0
  6  7  1  0
  7  8  1  0
  8  9  1  0
  9 10  2  0
  9 11  1  0
 11 12  2  0
 12 13  1  0
 13 14  1  0
 14 15  1  0
 15 16  1  0
 13 17  2  0
 17 18  1  0
 18 19  2  0
 19 20  1  0
 20 21  2  0
 21 22  1  0
 22 23  1  0
 23 24  1  0
 24 25  2  0
 25 26  1  0
 26 27  2  0
 27 28  1  0
 28 29  2  0
  7 30  2  0
 30 31  1  0
 31 32  2  0
 32 33  1  0
 33 34  2  0
 33  3  1  0
 32  5  1  0
 19 11  1  0
 29 24  1  0
 16 14  1  0
 22 18  1  0
M  END
>  <name>  (808) 
P125754

>  <alias>  (808) 
None

>  <smina_score_min>  (808) 
-9.629

>  <exports>  (808) 
['/opt/xchem-fragalysis-2/maxwin/BulkDock/OUTPUTS/openbind_xx01zvns2b_c2_elabs_1LOUTNY.sdf', '/opt/xchem-fragalysis-2/maxwin/BulkDock/OUTPUTS/openbind_xx01zvns2b_c2_elabs_1LSYIIV.sdf']

>  <tags>  (808) 
syndirella_placed,openbind_xx01zvns2b_c2_elabs,openbind_xx01zvns2b_c2_elabs_scored_6.2plus,syndirella_product,openbind_xx01zvns2b_c2_elabs_scored,openbind_xx01zvns2b_c2_elabs_scored_top80percent,BulkDock Fragalysis export

>  <subsites>  (808) 
1 - Z4590/B/203/1

>  <smiles>  (808) 
CCN1Cc2cc(NC(=O)c3cc(C4CC4)nc4c3cnn4Cc3ccccc3)ccc2C1=O

>  <HIPPO Pose ID>  (808) 
125754

>  <energy_score>  (808) 
-17.963959

>  <inchikey>  (808) 
JARFFALSLARGJS-UHFFFAOYSA-N

>  <gnina_score_min>  (808) 
6.696

>  <gnina_score>  (808) 
6.575

>  <ref_mols>  (808) 
Z3559a

>  <HIPPO Compound ID>  (808) 
187888

>  <distance_score>  (808) 
0.613982

>  <rmsd(smina/fragmenstein)>  (808) 
0.747

>  <ref_pdb>  (808) 
Z3559a

>  <inspiration_score>  (808) 
None

$$$$
P125755
     RDKit          3D

 34 39  0  0  0  0  0  0  0  0999 V2000
   -9.2012    2.5979   -5.8042 C   0  0  0  0  0  0  0  0  0  0  0  0
   -9.3342    3.3960   -6.9950 N   0  0  0  0  0  0  0  0  0  0  0  0
   -9.0921    2.6087   -8.2253 C   0  0  0  0  0  0  0  0  0  0  0  0
   -8.6203    3.6227   -9.2153 C   0  0  0  0  0  0  0  0  0  0  0  0
   -8.4101    3.4714  -10.5805 C   0  0  0  0  0  0  0  0  0  0  0  0
   -7.9042    4.5630  -11.2869 C   0  0  0  0  0  0  0  0  0  0  0  0
   -7.6263    4.4393  -12.6479 N   0  0  0  0  0  0  0  0  0  0  0  0
   -7.0621    5.4677  -13.6552 C   0  0  0  0  0  0  0  0  0  0  0  0
   -6.6695    6.5553  -13.4873 O   0  0  0  0  0  0  0  0  0  0  0  0
   -7.0726    4.9740  -15.0500 C   0  0  0  0  0  0  0  0  0  0  0  0
   -8.2157    4.4099  -15.6298 C   0  0  0  0  0  0  0  0  0  0  0  0
   -8.2774    4.2256  -17.0169 C   0  0  0  0  0  0  0  0  0  0  0  0
   -9.5582    3.7401  -17.6571 C   0  0  0  0  0  0  0  0  0  0  0  0
   -9.8261    3.9685  -19.1245 C   0  0  0  0  0  0  0  0  0  0  0  0
   -9.5147    2.5881  -18.6304 C   0  0  0  0  0  0  0  0  0  0  0  0
   -7.2600    4.5640  -17.8421 N   0  0  0  0  0  0  0  0  0  0  0  0
   -6.1830    5.0916  -17.2452 C   0  0  0  0  0  0  0  0  0  0  0  0
   -6.0061    5.3096  -15.8939 C   0  0  0  0  0  0  0  0  0  0  0  0
   -4.7392    5.9235  -15.8030 C   0  0  0  0  0  0  0  0  0  0  0  0
   -4.1776    6.1443  -16.9980 N   0  0  0  0  0  0  0  0  0  0  0  0
   -5.1021    5.6606  -17.8726 N   0  0  0  0  0  0  0  0  0  0  0  0
   -5.1383    6.1574  -19.2400 C   0  0  0  0  0  0  0  0  0  0  0  0
   -4.2376    5.4550  -20.2133 C   0  0  0  0  0  0  0  0  0  0  0  0
   -4.7925    4.6875  -21.2476 C   0  0  0  0  0  0  0  0  0  0  0  0
   -3.9826    4.1671  -22.2535 C   0  0  0  0  0  0  0  0  0  0  0  0
   -2.6134    4.4119  -22.2376 C   0  0  0  0  0  0  0  0  0  0  0  0
   -2.0419    5.1204  -21.1829 C   0  0  0  0  0  0  0  0  0  0  0  0
   -2.8499    5.6409  -20.1731 C   0  0  0  0  0  0  0  0  0  0  0  0
   -7.6504    5.7763  -10.6235 C   0  0  0  0  0  0  0  0  0  0  0  0
   -7.8755    5.9174   -9.2521 C   0  0  0  0  0  0  0  0  0  0  0  0
   -8.3494    4.8267   -8.5508 C   0  0  0  0  0  0  0  0  0  0  0  0
   -8.5476    4.6495   -7.0610 C   0  0  0  0  0  0  0  0  0  0  0  0
   -9.3402    5.7625   -6.3488 C   0  0  0  0  0  0  0  0  0  0  0  0
   -7.1484    4.6558   -6.4155 C   0  0  0  0  0  0  0  0  0  0  0  0
  1  2  1  0
  2  3  1  0
  3  4  1  0
  4  5  2  0
  5  6  1  0
  6  7  1  0
  7  8  1  0
  8  9  2  0
  8 10  1  0
 10 11  2  0
 11 12  1  0
 12 13  1  0
 13 14  1  0
 14 15  1  0
 12 16  2  0
 16 17  1  0
 17 18  2  0
 18 19  1  0
 19 20  2  0
 20 21  1  0
 21 22  1  0
 22 23  1  0
 23 24  2  0
 24 25  1  0
 25 26  2  0
 26 27  1  0
 27 28  2  0
  6 29  2  0
 29 30  1  0
 30 31  2  0
 31 32  1  0
 32 33  1  0
 32 34  1  0
 32  2  1  0
 31  4  1  0
 18 10  1  0
 28 23  1  0
 15 13  1  0
 21 17  1  0
M  END
>  <name>  (809) 
P125755

>  <alias>  (809) 
None

>  <smina_score_min>  (809) 
-9.321

>  <exports>  (809) 
['/opt/xchem-fragalysis-2/maxwin/BulkDock/OUTPUTS/openbind_xx01zvns2b_c2_elabs_1LOUTNY.sdf', '/opt/xchem-fragalysis-2/maxwin/BulkDock/OUTPUTS/openbind_xx01zvns2b_c2_elabs_1LSYIIV.sdf']

>  <tags>  (809) 
syndirella_placed,openbind_xx01zvns2b_c2_elabs,openbind_xx01zvns2b_c2_elabs_scored_6.2plus,syndirella_product,openbind_xx01zvns2b_c2_elabs_scored,openbind_xx01zvns2b_c2_elabs_scored_top80percent,BulkDock Fragalysis export

>  <subsites>  (809) 
1 - Z4590/B/203/1

>  <smiles>  (809) 
CN1Cc2cc(NC(=O)c3cc(C4CC4)nc4c3cnn4Cc3ccccc3)ccc2C1(C)C

>  <HIPPO Pose ID>  (809) 
125755

>  <energy_score>  (809) 
-39.628849

>  <inchikey>  (809) 
VNCRETAHHYVDQO-UHFFFAOYSA-N

>  <gnina_score_min>  (809) 
6.351

>  <gnina_score>  (809) 
6.429

>  <ref_mols>  (809) 
Z3559a

>  <HIPPO Compound ID>  (809) 
187891

>  <distance_score>  (809) 
0.628635

>  <rmsd(smina/fragmenstein)>  (809) 
0.365

>  <ref_pdb>  (809) 
Z3559a

>  <inspiration_score>  (809) 
None

$$$$
P125756
     RDKit          3D

 34 38  0  0  0  0  0  0  0  0999 V2000
   -3.9313    6.3774  -14.7708 C   0  0  0  0  0  0  0  0  0  0  0  0
   -4.7351    5.9709  -15.9514 C   0  0  0  0  0  0  0  0  0  0  0  0
   -4.2507    6.2120  -17.1821 N   0  0  0  0  0  0  0  0  0  0  0  0
   -5.1846    5.6731  -18.0085 N   0  0  0  0  0  0  0  0  0  0  0  0
   -5.1209    5.9081  -19.4406 C   0  0  0  0  0  0  0  0  0  0  0  0
   -3.9166    5.2835  -20.1264 C   0  0  0  0  0  0  0  0  0  0  0  0
   -4.0262    4.6422  -21.0979 O   0  0  0  0  0  0  0  0  0  0  0  0
   -2.6451    5.7503  -19.3677 N   0  0  0  0  0  0  0  0  0  0  0  0
   -1.2557    5.4450  -19.5946 C   0  0  0  0  0  0  0  0  0  0  0  0
   -0.7746    6.0764  -20.8959 C   0  0  0  0  0  0  0  0  0  0  0  0
   -0.4024    5.8934  -18.4156 C   0  0  0  0  0  0  0  0  0  0  0  0
   -6.2477    5.1445  -17.3391 C   0  0  0  0  0  0  0  0  0  0  0  0
   -7.3271    4.5980  -17.9053 N   0  0  0  0  0  0  0  0  0  0  0  0
   -8.3203    4.2503  -17.0635 C   0  0  0  0  0  0  0  0  0  0  0  0
   -9.6036    3.7445  -17.6752 C   0  0  0  0  0  0  0  0  0  0  0  0
   -9.9015    3.9587  -19.1383 C   0  0  0  0  0  0  0  0  0  0  0  0
   -9.5585    2.5865  -18.6409 C   0  0  0  0  0  0  0  0  0  0  0  0
   -8.2214    4.4331  -15.6820 C   0  0  0  0  0  0  0  0  0  0  0  0
   -7.0637    4.9985  -15.1226 C   0  0  0  0  0  0  0  0  0  0  0  0
   -7.0090    5.3758  -13.6886 C   0  0  0  0  0  0  0  0  0  0  0  0
   -6.5208    6.3991  -13.4123 O   0  0  0  0  0  0  0  0  0  0  0  0
   -7.6313    4.2877  -12.7867 N   0  0  0  0  0  0  0  0  0  0  0  0
   -7.8602    4.2736  -11.4153 C   0  0  0  0  0  0  0  0  0  0  0  0
   -7.4363    5.3400  -10.5964 C   0  0  0  0  0  0  0  0  0  0  0  0
   -7.6401    5.3221   -9.2102 C   0  0  0  0  0  0  0  0  0  0  0  0
   -8.2931    4.2353   -8.6692 C   0  0  0  0  0  0  0  0  0  0  0  0
   -8.7349    3.2066   -9.4989 C   0  0  0  0  0  0  0  0  0  0  0  0
   -8.5215    3.1819  -10.8624 C   0  0  0  0  0  0  0  0  0  0  0  0
   -9.4706    2.2505   -8.6772 C   0  0  0  0  0  0  0  0  0  0  0  0
   -9.9729    1.2273   -9.0905 O   0  0  0  0  0  0  0  0  0  0  0  0
   -9.4891    2.7607   -7.3901 N   0  0  0  0  0  0  0  0  0  0  0  0
   -9.7961    1.9073   -6.2794 C   0  0  0  0  0  0  0  0  0  0  0  0
   -8.6439    3.9265   -7.2537 C   0  0  0  0  0  0  0  0  0  0  0  0
   -6.0243    5.3672  -15.9932 C   0  0  0  0  0  0  0  0  0  0  0  0
  1  2  1  0
  2  3  2  0
  3  4  1  0
  4  5  1  0
  5  6  1  0
  6  7  2  0
  6  8  1  0
  8  9  1  0
  9 10  1  0
  9 11  1  0
  4 12  1  0
 12 13  2  0
 13 14  1  0
 14 15  1  0
 15 16  1  0
 16 17  1  0
 14 18  2  0
 18 19  1  0
 19 20  1  0
 20 21  2  0
 20 22  1  0
 22 23  1  0
 23 24  2  0
 24 25  1  0
 25 26  2  0
 26 27  1  0
 27 28  2  0
 27 29  1  0
 29 30  2  0
 29 31  1  0
 31 32  1  0
 31 33  1  0
 19 34  2  0
 34  2  1  0
 34 12  1  0
 17 15  1  0
 28 23  1  0
 33 26  1  0
M  END
>  <name>  (810) 
P125756

>  <alias>  (810) 
None

>  <smina_score_min>  (810) 
-8.277

>  <exports>  (810) 
['/opt/xchem-fragalysis-2/maxwin/BulkDock/OUTPUTS/openbind_xx01zvns2b_c2_elabs_1LOUTNY.sdf', '/opt/xchem-fragalysis-2/maxwin/BulkDock/OUTPUTS/openbind_xx01zvns2b_c2_elabs_1LSYIIV.sdf']

>  <tags>  (810) 
syndirella_placed,openbind_xx01zvns2b_c2_elabs,openbind_xx01zvns2b_c2_elabs_scored_6.2plus,syndirella_product,openbind_xx01zvns2b_c2_elabs_scored,openbind_xx01zvns2b_c2_elabs_scored_top80percent,BulkDock Fragalysis export

>  <subsites>  (810) 
1 - Z4590/B/203/1

>  <smiles>  (810) 
Cc1nn(CC(=O)NC(C)C)c2nc(C3CC3)cc(C(=O)Nc3ccc4c(c3)C(=O)N(C)C4)c12

>  <HIPPO Pose ID>  (810) 
125756

>  <energy_score>  (810) 
-37.165664

>  <inchikey>  (810) 
FKVXBZVKTAEBCI-UHFFFAOYSA-N

>  <gnina_score_min>  (810) 
6.358

>  <gnina_score>  (810) 
6.463

>  <ref_mols>  (810) 
Z3559a

>  <HIPPO Compound ID>  (810) 
187892

>  <distance_score>  (810) 
0.469735

>  <rmsd(smina/fragmenstein)>  (810) 
0.75

>  <ref_pdb>  (810) 
Z3559a

>  <inspiration_score>  (810) 
None

$$$$
P125757
     RDKit          3D

 34 38  0  0  0  0  0  0  0  0999 V2000
   -3.9236    6.2295  -14.5546 C   0  0  0  0  0  0  0  0  0  0  0  0
   -4.7028    5.8627  -15.7654 C   0  0  0  0  0  0  0  0  0  0  0  0
   -4.1645    6.0869  -16.9781 N   0  0  0  0  0  0  0  0  0  0  0  0
   -5.1013    5.6132  -17.8383 N   0  0  0  0  0  0  0  0  0  0  0  0
   -4.9830    5.8897  -19.2596 C   0  0  0  0  0  0  0  0  0  0  0  0
   -3.8394    5.1634  -19.9573 C   0  0  0  0  0  0  0  0  0  0  0  0
   -4.0143    4.5515  -20.9389 O   0  0  0  0  0  0  0  0  0  0  0  0
   -2.5285    5.4610  -19.1764 N   0  0  0  0  0  0  0  0  0  0  0  0
   -1.1534    5.1465  -19.4957 C   0  0  0  0  0  0  0  0  0  0  0  0
   -0.7768    5.6636  -20.8804 C   0  0  0  0  0  0  0  0  0  0  0  0
   -0.2176    5.7166  -18.4363 C   0  0  0  0  0  0  0  0  0  0  0  0
   -6.2011    5.1057  -17.2070 C   0  0  0  0  0  0  0  0  0  0  0  0
   -7.2799    4.5950  -17.8094 N   0  0  0  0  0  0  0  0  0  0  0  0
   -8.2989    4.2476  -16.9941 C   0  0  0  0  0  0  0  0  0  0  0  0
   -9.5748    3.7627  -17.6443 C   0  0  0  0  0  0  0  0  0  0  0  0
   -9.5222    2.6118  -18.6193 C   0  0  0  0  0  0  0  0  0  0  0  0
   -9.8334    3.9921  -19.1132 C   0  0  0  0  0  0  0  0  0  0  0  0
   -8.2325    4.4040  -15.6048 C   0  0  0  0  0  0  0  0  0  0  0  0
   -7.0823    4.9396  -15.0058 C   0  0  0  0  0  0  0  0  0  0  0  0
   -7.0610    5.3120  -13.5657 C   0  0  0  0  0  0  0  0  0  0  0  0
   -6.5545    6.3304  -13.2978 O   0  0  0  0  0  0  0  0  0  0  0  0
   -7.7067    4.2386  -12.6498 N   0  0  0  0  0  0  0  0  0  0  0  0
   -7.9401    4.2421  -11.2629 C   0  0  0  0  0  0  0  0  0  0  0  0
   -8.5557    3.1181  -10.6935 C   0  0  0  0  0  0  0  0  0  0  0  0
   -8.7449    3.1061   -9.3169 C   0  0  0  0  0  0  0  0  0  0  0  0
   -8.3333    4.1460   -8.4853 C   0  0  0  0  0  0  0  0  0  0  0  0
   -7.7506    5.2692   -9.0303 C   0  0  0  0  0  0  0  0  0  0  0  0
   -7.5656    5.3117  -10.4170 C   0  0  0  0  0  0  0  0  0  0  0  0
   -6.9991    6.4237  -10.8993 F   0  0  0  0  0  0  0  0  0  0  0  0
   -8.6292    3.8186   -7.0617 C   0  0  0  0  0  0  0  0  0  0  0  0
   -9.3031    2.5557   -7.1640 N   0  0  0  0  0  0  0  0  0  0  0  0
   -9.3895    2.1004   -8.4622 C   0  0  0  0  0  0  0  0  0  0  0  0
   -9.9386    1.0869   -8.8338 O   0  0  0  0  0  0  0  0  0  0  0  0
   -6.0102    5.2980  -15.8496 C   0  0  0  0  0  0  0  0  0  0  0  0
  1  2  1  0
  2  3  2  0
  3  4  1  0
  4  5  1  0
  5  6  1  0
  6  7  2  0
  6  8  1  0
  8  9  1  0
  9 10  1  0
  9 11  1  0
  4 12  1  0
 12 13  2  0
 13 14  1  0
 14 15  1  0
 15 16  1  0
 16 17  1  0
 14 18  2  0
 18 19  1  0
 19 20  1  0
 20 21  2  0
 20 22  1  0
 22 23  1  0
 23 24  2  0
 24 25  1  0
 25 26  2  0
 26 27  1  0
 27 28  2  0
 28 29  1  0
 26 30  1  0
 30 31  1  0
 31 32  1  0
 32 33  2  0
 19 34  2  0
 34  2  1  0
 34 12  1  0
 17 15  1  0
 28 23  1  0
 32 25  1  0
M  END
>  <name>  (811) 
P125757

>  <alias>  (811) 
None

>  <smina_score_min>  (811) 
-8.41

>  <exports>  (811) 
['/opt/xchem-fragalysis-2/maxwin/BulkDock/OUTPUTS/openbind_xx01zvns2b_c2_elabs_1LOUTNY.sdf', '/opt/xchem-fragalysis-2/maxwin/BulkDock/OUTPUTS/openbind_xx01zvns2b_c2_elabs_1LSYIIV.sdf']

>  <tags>  (811) 
syndirella_placed,openbind_xx01zvns2b_c2_elabs,openbind_xx01zvns2b_c2_elabs_scored_6.2plus,syndirella_product,openbind_xx01zvns2b_c2_elabs_scored,openbind_xx01zvns2b_c2_elabs_scored_top80percent,BulkDock Fragalysis export

>  <subsites>  (811) 
1 - Z4590/B/203/1

>  <smiles>  (811) 
Cc1nn(CC(=O)NC(C)C)c2nc(C3CC3)cc(C(=O)Nc3cc4c(cc3F)CNC4=O)c12

>  <HIPPO Pose ID>  (811) 
125757

>  <energy_score>  (811) 
-40.340674

>  <inchikey>  (811) 
NMAHWIAYXYBIGG-UHFFFAOYSA-N

>  <gnina_score_min>  (811) 
6.439

>  <gnina_score>  (811) 
6.422

>  <ref_mols>  (811) 
Z3559a

>  <HIPPO Compound ID>  (811) 
187896

>  <distance_score>  (811) 
0.36454

>  <rmsd(smina/fragmenstein)>  (811) 
0.823

>  <ref_pdb>  (811) 
Z3559a

>  <inspiration_score>  (811) 
None

$$$$
P125758
     RDKit          3D

 34 39  0  0  0  0  0  0  0  0999 V2000
  -10.6812    2.6467   -5.3799 C   0  0  0  0  0  0  0  0  0  0  0  0
   -9.8675    1.9030   -6.4164 C   0  0  0  0  0  0  0  0  0  0  0  0
   -9.4538    2.7477   -7.5055 N   0  0  0  0  0  0  0  0  0  0  0  0
   -8.6482    3.9384   -7.3230 C   0  0  0  0  0  0  0  0  0  0  0  0
   -8.2809    4.2871   -8.7248 C   0  0  0  0  0  0  0  0  0  0  0  0
   -7.6476    5.4006   -9.2338 C   0  0  0  0  0  0  0  0  0  0  0  0
   -7.4459    5.4627  -10.6192 C   0  0  0  0  0  0  0  0  0  0  0  0
   -7.8539    4.4129  -11.4658 C   0  0  0  0  0  0  0  0  0  0  0  0
   -7.6317    4.4574  -12.8347 N   0  0  0  0  0  0  0  0  0  0  0  0
   -7.0354    5.5732  -13.7176 C   0  0  0  0  0  0  0  0  0  0  0  0
   -6.5662    6.6005  -13.4241 O   0  0  0  0  0  0  0  0  0  0  0  0
   -7.0329    5.1842  -15.1457 C   0  0  0  0  0  0  0  0  0  0  0  0
   -8.0950    4.5146  -15.7634 C   0  0  0  0  0  0  0  0  0  0  0  0
   -8.0134    4.1809  -17.1194 C   0  0  0  0  0  0  0  0  0  0  0  0
   -9.0738    3.3003  -17.7223 C   0  0  0  0  0  0  0  0  0  0  0  0
  -10.1768    3.8475  -18.5894 C   0  0  0  0  0  0  0  0  0  0  0  0
   -9.0826    3.0252  -19.2008 C   0  0  0  0  0  0  0  0  0  0  0  0
   -6.9722    4.5481  -17.9028 N   0  0  0  0  0  0  0  0  0  0  0  0
   -5.9828    5.1958  -17.2729 C   0  0  0  0  0  0  0  0  0  0  0  0
   -5.9254    5.5162  -15.9310 C   0  0  0  0  0  0  0  0  0  0  0  0
   -4.6610    6.1157  -15.7645 C   0  0  0  0  0  0  0  0  0  0  0  0
   -3.9559    6.1635  -16.8996 N   0  0  0  0  0  0  0  0  0  0  0  0
   -4.8184    5.6600  -17.8243 N   0  0  0  0  0  0  0  0  0  0  0  0
   -4.4152    5.5313  -19.2174 C   0  0  0  0  0  0  0  0  0  0  0  0
   -4.4817    6.8214  -20.0088 C   0  0  0  0  0  0  0  0  0  0  0  0
   -3.9429    8.0270  -19.5341 C   0  0  0  0  0  0  0  0  0  0  0  0
   -3.9613    9.1807  -20.3228 C   0  0  0  0  0  0  0  0  0  0  0  0
   -4.4997    9.1428  -21.6064 C   0  0  0  0  0  0  0  0  0  0  0  0
   -5.0185    7.9504  -22.1022 C   0  0  0  0  0  0  0  0  0  0  0  0
   -5.0080    6.8000  -21.3097 C   0  0  0  0  0  0  0  0  0  0  0  0
   -8.4909    3.2928  -10.9465 C   0  0  0  0  0  0  0  0  0  0  0  0
   -8.7006    3.2752   -9.5852 C   0  0  0  0  0  0  0  0  0  0  0  0
   -9.4375    2.2903   -8.8069 C   0  0  0  0  0  0  0  0  0  0  0  0
   -9.9628    1.3038   -9.2755 O   0  0  0  0  0  0  0  0  0  0  0  0
  1  2  1  0
  2  3  1  0
  3  4  1  0
  4  5  1  0
  5  6  2  0
  6  7  1  0
  7  8  2  0
  8  9  1  0
  9 10  1  0
 10 11  2  0
 10 12  1  0
 12 13  2  0
 13 14  1  0
 14 15  1  0
 15 16  1  0
 16 17  1  0
 14 18  2  0
 18 19  1  0
 19 20  2  0
 20 21  1  0
 21 22  2  0
 22 23  1  0
 23 24  1  0
 24 25  1  0
 25 26  2  0
 26 27  1  0
 27 28  2  0
 28 29  1  0
 29 30  2  0
  8 31  1  0
 31 32  2  0
 32 33  1  0
 33 34  2  0
 33  3  1  0
 32  5  1  0
 20 12  1  0
 30 25  1  0
 17 15  1  0
 23 19  1  0
M  END
>  <name>  (812) 
P125758

>  <alias>  (812) 
None

>  <smina_score_min>  (812) 
-8.746

>  <exports>  (812) 
['/opt/xchem-fragalysis-2/maxwin/BulkDock/OUTPUTS/openbind_xx01zvns2b_c2_elabs_1LOUTNY.sdf', '/opt/xchem-fragalysis-2/maxwin/BulkDock/OUTPUTS/openbind_xx01zvns2b_c2_elabs_1LSYIIV.sdf']

>  <tags>  (812) 
syndirella_placed,openbind_xx01zvns2b_c2_elabs,openbind_xx01zvns2b_c2_elabs_scored_6.2plus,syndirella_product,openbind_xx01zvns2b_c2_elabs_scored,openbind_xx01zvns2b_c2_elabs_scored_top80percent,BulkDock Fragalysis export

>  <subsites>  (812) 
1 - Z4590/B/203/1

>  <smiles>  (812) 
CCN1Cc2ccc(NC(=O)c3cc(C4CC4)nc4c3cnn4Cc3ccccc3)cc2C1=O

>  <HIPPO Pose ID>  (812) 
125758

>  <energy_score>  (812) 
-47.970468

>  <inchikey>  (812) 
RLLMJVLFRLNOSQ-UHFFFAOYSA-N

>  <gnina_score_min>  (812) 
6.308

>  <gnina_score>  (812) 
6.469

>  <ref_mols>  (812) 
Z3559a

>  <HIPPO Compound ID>  (812) 
187897

>  <distance_score>  (812) 
0.593731

>  <rmsd(smina/fragmenstein)>  (812) 
0.659

>  <ref_pdb>  (812) 
Z3559a

>  <inspiration_score>  (812) 
None

$$$$
P125759
     RDKit          3D

 34 39  0  0  0  0  0  0  0  0999 V2000
   -9.9257    3.7406   -4.4680 C   0  0  0  0  0  0  0  0  0  0  0  0
  -10.5890    2.6406   -5.2836 C   0  0  0  0  0  0  0  0  0  0  0  0
   -9.7098    2.0101   -6.3674 C   0  0  0  0  0  0  0  0  0  0  0  0
   -9.5893    2.8509   -7.5415 N   0  0  0  0  0  0  0  0  0  0  0  0
   -8.6649    3.9855   -7.4051 C   0  0  0  0  0  0  0  0  0  0  0  0
   -8.2390    4.2580   -8.8077 C   0  0  0  0  0  0  0  0  0  0  0  0
   -7.6714    5.3941   -9.3428 C   0  0  0  0  0  0  0  0  0  0  0  0
   -7.4219    5.4045  -10.7127 C   0  0  0  0  0  0  0  0  0  0  0  0
   -7.7377    4.2907  -11.5104 C   0  0  0  0  0  0  0  0  0  0  0  0
   -7.5124    4.3135  -12.8785 N   0  0  0  0  0  0  0  0  0  0  0  0
   -7.0006    5.4455  -13.7899 C   0  0  0  0  0  0  0  0  0  0  0  0
   -6.6144    6.5138  -13.5247 O   0  0  0  0  0  0  0  0  0  0  0  0
   -7.0493    5.0530  -15.2064 C   0  0  0  0  0  0  0  0  0  0  0  0
   -8.1942    4.5037  -15.7873 C   0  0  0  0  0  0  0  0  0  0  0  0
   -8.2304    4.2742  -17.1649 C   0  0  0  0  0  0  0  0  0  0  0  0
   -9.5130    3.7679  -17.7858 C   0  0  0  0  0  0  0  0  0  0  0  0
   -9.4819    2.5629  -18.6899 C   0  0  0  0  0  0  0  0  0  0  0  0
   -9.7690    3.9194  -19.2614 C   0  0  0  0  0  0  0  0  0  0  0  0
   -7.1823    4.5571  -17.9814 N   0  0  0  0  0  0  0  0  0  0  0  0
   -6.1082    5.0894  -17.3757 C   0  0  0  0  0  0  0  0  0  0  0  0
   -5.9608    5.3442  -16.0266 C   0  0  0  0  0  0  0  0  0  0  0  0
   -4.6593    5.8653  -15.8959 C   0  0  0  0  0  0  0  0  0  0  0  0
   -4.0092    5.9251  -17.0625 N   0  0  0  0  0  0  0  0  0  0  0  0
   -4.9481    5.5222  -17.9635 N   0  0  0  0  0  0  0  0  0  0  0  0
   -4.6415    5.5061  -19.3869 C   0  0  0  0  0  0  0  0  0  0  0  0
   -4.7304    6.8538  -20.0790 C   0  0  0  0  0  0  0  0  0  0  0  0
   -5.0073    6.8787  -21.4569 C   0  0  0  0  0  0  0  0  0  0  0  0
   -5.0218    8.0797  -22.1706 C   0  0  0  0  0  0  0  0  0  0  0  0
   -4.7553    9.2800  -21.5188 C   0  0  0  0  0  0  0  0  0  0  0  0
   -4.4686    9.2764  -20.1563 C   0  0  0  0  0  0  0  0  0  0  0  0
   -4.4468    8.0730  -19.4444 C   0  0  0  0  0  0  0  0  0  0  0  0
   -8.2947    3.1408  -10.9510 C   0  0  0  0  0  0  0  0  0  0  0  0
   -8.5403    3.1463   -9.5949 C   0  0  0  0  0  0  0  0  0  0  0  0
   -9.1467    2.0912   -8.7294 C   0  0  0  0  0  0  0  0  0  0  0  0
  1  2  1  0
  2  3  1  0
  3  4  1  0
  4  5  1  0
  5  6  1  0
  6  7  2  0
  7  8  1  0
  8  9  2  0
  9 10  1  0
 10 11  1  0
 11 12  2  0
 11 13  1  0
 13 14  2  0
 14 15  1  0
 15 16  1  0
 16 17  1  0
 17 18  1  0
 15 19  2  0
 19 20  1  0
 20 21  2  0
 21 22  1  0
 22 23  2  0
 23 24  1  0
 24 25  1  0
 25 26  1  0
 26 27  2  0
 27 28  1  0
 28 29  2  0
 29 30  1  0
 30 31  2  0
  9 32  1  0
 32 33  2  0
 33 34  1  0
 34  4  1  0
 33  6  1  0
 21 13  1  0
 31 26  1  0
 18 16  1  0
 24 20  1  0
M  END
>  <name>  (813) 
P125759

>  <alias>  (813) 
None

>  <smina_score_min>  (813) 
-9.343

>  <exports>  (813) 
['/opt/xchem-fragalysis-2/maxwin/BulkDock/OUTPUTS/openbind_xx01zvns2b_c2_elabs_1LOUTNY.sdf', '/opt/xchem-fragalysis-2/maxwin/BulkDock/OUTPUTS/openbind_xx01zvns2b_c2_elabs_1LSYIIV.sdf']

>  <tags>  (813) 
syndirella_placed,openbind_xx01zvns2b_c2_elabs,openbind_xx01zvns2b_c2_elabs_scored_6.2plus,syndirella_product,openbind_xx01zvns2b_c2_elabs_scored,openbind_xx01zvns2b_c2_elabs_scored_top80percent,BulkDock Fragalysis export

>  <subsites>  (813) 
1 - Z4590/B/203/1

>  <smiles>  (813) 
CCCN1Cc2ccc(NC(=O)c3cc(C4CC4)nc4c3cnn4Cc3ccccc3)cc2C1

>  <HIPPO Pose ID>  (813) 
125759

>  <energy_score>  (813) 
-30.733062

>  <inchikey>  (813) 
DZUYVRQWJFLFOP-UHFFFAOYSA-N

>  <gnina_score_min>  (813) 
6.565

>  <gnina_score>  (813) 
6.541

>  <ref_mols>  (813) 
Z3559a

>  <HIPPO Compound ID>  (813) 
187898

>  <distance_score>  (813) 
0.526046

>  <rmsd(smina/fragmenstein)>  (813) 
0.317

>  <ref_pdb>  (813) 
Z3559a

>  <inspiration_score>  (813) 
None

$$$$
P125760
     RDKit          3D

 34 38  0  0  0  0  0  0  0  0999 V2000
   -6.4059    4.7452   -6.1765 C   0  0  0  0  0  0  0  0  0  0  0  0
   -7.6754    4.0239   -5.6695 C   0  0  0  0  0  0  0  0  0  0  0  0
   -8.8648    4.0568   -6.5166 N   0  0  0  0  0  0  0  0  0  0  0  0
   -9.0343    5.4249   -7.0121 C   0  0  0  0  0  0  0  0  0  0  0  0
   -8.5815    5.3838   -8.4358 C   0  0  0  0  0  0  0  0  0  0  0  0
   -8.3119    6.4461   -9.2668 C   0  0  0  0  0  0  0  0  0  0  0  0
   -7.9833    6.1716  -10.5906 C   0  0  0  0  0  0  0  0  0  0  0  0
   -7.9453    4.8554  -11.0873 C   0  0  0  0  0  0  0  0  0  0  0  0
   -7.6535    4.6742  -12.4458 N   0  0  0  0  0  0  0  0  0  0  0  0
   -7.4374    5.7132  -13.5763 C   0  0  0  0  0  0  0  0  0  0  0  0
   -7.3931    6.8811  -13.5340 O   0  0  0  0  0  0  0  0  0  0  0  0
   -7.2313    5.1202  -14.9111 C   0  0  0  0  0  0  0  0  0  0  0  0
   -8.2402    4.4027  -15.5637 C   0  0  0  0  0  0  0  0  0  0  0  0
   -8.0985    4.0861  -16.9223 C   0  0  0  0  0  0  0  0  0  0  0  0
   -9.1227    3.2283  -17.6185 C   0  0  0  0  0  0  0  0  0  0  0  0
   -9.1309    3.1422  -19.1246 C   0  0  0  0  0  0  0  0  0  0  0  0
  -10.2622    3.8167  -18.4142 C   0  0  0  0  0  0  0  0  0  0  0  0
   -7.0349    4.4791  -17.6617 N   0  0  0  0  0  0  0  0  0  0  0  0
   -6.1024    5.1692  -16.9944 C   0  0  0  0  0  0  0  0  0  0  0  0
   -6.0963    5.4907  -15.6509 C   0  0  0  0  0  0  0  0  0  0  0  0
   -4.8656    6.1797  -15.4606 C   0  0  0  0  0  0  0  0  0  0  0  0
   -4.3193    6.7574  -14.2069 C   0  0  0  0  0  0  0  0  0  0  0  0
   -4.1590    6.2759  -16.5996 N   0  0  0  0  0  0  0  0  0  0  0  0
   -4.9812    5.7352  -17.5267 N   0  0  0  0  0  0  0  0  0  0  0  0
   -4.6014    5.7165  -18.9219 C   0  0  0  0  0  0  0  0  0  0  0  0
   -5.1501    6.9080  -19.7087 C   0  0  0  0  0  0  0  0  0  0  0  0
   -5.8244    7.7555  -19.2634 O   0  0  0  0  0  0  0  0  0  0  0  0
   -4.6187    6.6964  -21.1654 N   0  0  0  0  0  0  0  0  0  0  0  0
   -4.7335    7.5352  -22.3363 C   0  0  0  0  0  0  0  0  0  0  0  0
   -4.7398    6.6890  -23.6023 C   0  0  0  0  0  0  0  0  0  0  0  0
   -3.6095    8.5640  -22.3591 C   0  0  0  0  0  0  0  0  0  0  0  0
   -8.1982    3.7781  -10.2239 C   0  0  0  0  0  0  0  0  0  0  0  0
   -8.4949    4.0656   -8.8888 C   0  0  0  0  0  0  0  0  0  0  0  0
   -8.8243    3.1699   -7.7301 C   0  0  0  0  0  0  0  0  0  0  0  0
  1  2  1  0
  2  3  1  0
  3  4  1  0
  4  5  1  0
  5  6  2  0
  6  7  1  0
  7  8  2  0
  8  9  1  0
  9 10  1  0
 10 11  2  0
 10 12  1  0
 12 13  2  0
 13 14  1  0
 14 15  1  0
 15 16  1  0
 16 17  1  0
 14 18  2  0
 18 19  1  0
 19 20  2  0
 20 21  1  0
 21 22  1  0
 21 23  2  0
 23 24  1  0
 24 25  1  0
 25 26  1  0
 26 27  2  0
 26 28  1  0
 28 29  1  0
 29 30  1  0
 29 31  1  0
  8 32  1  0
 32 33  2  0
 33 34  1  0
 34  3  1  0
 33  5  1  0
 20 12  1  0
 17 15  1  0
 24 19  1  0
M  END
>  <name>  (814) 
P125760

>  <alias>  (814) 
None

>  <smina_score_min>  (814) 
-7.741

>  <exports>  (814) 
['/opt/xchem-fragalysis-2/maxwin/BulkDock/OUTPUTS/openbind_xx01zvns2b_c2_elabs_1LOUTNY.sdf', '/opt/xchem-fragalysis-2/maxwin/BulkDock/OUTPUTS/openbind_xx01zvns2b_c2_elabs_1LSYIIV.sdf']

>  <tags>  (814) 
syndirella_placed,openbind_xx01zvns2b_c2_elabs,openbind_xx01zvns2b_c2_elabs_scored_6.2plus,syndirella_product,openbind_xx01zvns2b_c2_elabs_scored,openbind_xx01zvns2b_c2_elabs_scored_top80percent,BulkDock Fragalysis export

>  <subsites>  (814) 
1 - Z4590/B/203/1

>  <smiles>  (814) 
CCN1Cc2ccc(NC(=O)c3cc(C4CC4)nc4c3c(C)nn4CC(=O)NC(C)C)cc2C1

>  <HIPPO Pose ID>  (814) 
125760

>  <energy_score>  (814) 
-23.997136

>  <inchikey>  (814) 
ARERTKDKWHNBIW-UHFFFAOYSA-N

>  <gnina_score_min>  (814) 
6.528

>  <gnina_score>  (814) 
6.584

>  <ref_mols>  (814) 
Z3559a

>  <HIPPO Compound ID>  (814) 
187899

>  <distance_score>  (814) 
0.995899

>  <rmsd(smina/fragmenstein)>  (814) 
0.681

>  <ref_pdb>  (814) 
Z3559a

>  <inspiration_score>  (814) 
None

$$$$
P125762
     RDKit          3D

 34 39  0  0  0  0  0  0  0  0999 V2000
   -3.8455    6.3232  -14.8445 C   0  0  0  0  0  0  0  0  0  0  0  0
   -4.6727    5.9440  -16.0180 C   0  0  0  0  0  0  0  0  0  0  0  0
   -4.2013    6.1740  -17.2580 N   0  0  0  0  0  0  0  0  0  0  0  0
   -5.1903    5.7402  -18.0647 N   0  0  0  0  0  0  0  0  0  0  0  0
   -5.1870    6.0228  -19.4875 C   0  0  1  0  0  0  0  0  0  0  0  0
   -4.5893    7.3860  -19.8732 C   0  0  0  0  0  0  0  0  0  0  0  0
   -4.5713    7.4039  -21.3961 C   0  0  0  0  0  0  0  0  0  0  0  0
   -4.1086    5.7480  -21.8696 S   0  0  0  0  0  0  0  0  0  0  0  0
   -2.6806    5.7224  -22.1075 O   0  0  0  0  0  0  0  0  0  0  0  0
   -5.0467    5.2572  -22.8578 O   0  0  0  0  0  0  0  0  0  0  0  0
   -4.4423    4.9791  -20.3007 C   0  0  0  0  0  0  0  0  0  0  0  0
   -6.2265    5.1699  -17.3821 C   0  0  0  0  0  0  0  0  0  0  0  0
   -7.3138    4.6263  -17.9383 N   0  0  0  0  0  0  0  0  0  0  0  0
   -8.2842    4.2523  -17.0783 C   0  0  0  0  0  0  0  0  0  0  0  0
   -9.5772    3.7438  -17.6680 C   0  0  0  0  0  0  0  0  0  0  0  0
   -9.9074    3.9651  -19.1231 C   0  0  0  0  0  0  0  0  0  0  0  0
   -9.5456    2.5920  -18.6419 C   0  0  0  0  0  0  0  0  0  0  0  0
   -8.1565    4.4105  -15.6952 C   0  0  0  0  0  0  0  0  0  0  0  0
   -6.9898    4.9709  -15.1496 C   0  0  0  0  0  0  0  0  0  0  0  0
   -6.9310    5.3445  -13.7141 C   0  0  0  0  0  0  0  0  0  0  0  0
   -6.5092    6.4004  -13.4470 O   0  0  0  0  0  0  0  0  0  0  0  0
   -7.5081    4.2349  -12.8024 N   0  0  0  0  0  0  0  0  0  0  0  0
   -7.7649    4.2314  -11.4312 C   0  0  0  0  0  0  0  0  0  0  0  0
   -7.5284    5.3801  -10.6514 C   0  0  0  0  0  0  0  0  0  0  0  0
   -7.8016    5.3885   -9.2808 C   0  0  0  0  0  0  0  0  0  0  0  0
   -8.3037    4.2295   -8.7269 C   0  0  0  0  0  0  0  0  0  0  0  0
   -8.5469    3.0832   -9.4802 C   0  0  0  0  0  0  0  0  0  0  0  0
   -8.2823    3.0693  -10.8416 C   0  0  0  0  0  0  0  0  0  0  0  0
   -9.1197    2.0185   -8.6042 C   0  0  0  0  0  0  0  0  0  0  0  0
   -9.2112    2.6879   -7.3176 N   0  0  0  0  0  0  0  0  0  0  0  0
   -9.9136    2.1004   -6.2074 C   0  0  0  0  0  0  0  0  0  0  0  0
   -8.7383    3.9824   -7.3466 C   0  0  0  0  0  0  0  0  0  0  0  0
   -8.7181    4.8137   -6.4574 O   0  0  0  0  0  0  0  0  0  0  0  0
   -5.9690    5.3550  -16.0366 C   0  0  0  0  0  0  0  0  0  0  0  0
  1  2  1  0
  2  3  2  0
  3  4  1  0
  5  4  1  1
  5  6  1  0
  6  7  1  0
  7  8  1  0
  8  9  2  0
  8 10  2  0
  8 11  1  0
  4 12  1  0
 12 13  2  0
 13 14  1  0
 14 15  1  0
 15 16  1  0
 16 17  1  0
 14 18  2  0
 18 19  1  0
 19 20  1  0
 20 21  2  0
 20 22  1  0
 22 23  1  0
 23 24  2  0
 24 25  1  0
 25 26  2  0
 26 27  1  0
 27 28  2  0
 27 29  1  0
 29 30  1  0
 30 31  1  0
 30 32  1  0
 32 33  2  0
 19 34  2  0
 34  2  1  0
 11  5  1  0
 34 12  1  0
 17 15  1  0
 28 23  1  0
 32 26  1  0
M  END
>  <name>  (815) 
P125762

>  <alias>  (815) 
None

>  <smina_score_min>  (815) 
-10.092

>  <exports>  (815) 
['/opt/xchem-fragalysis-2/maxwin/BulkDock/OUTPUTS/openbind_xx01zvns2b_c2_elabs_1LOUTNY.sdf', '/opt/xchem-fragalysis-2/maxwin/BulkDock/OUTPUTS/openbind_xx01zvns2b_c2_elabs_1LSYIIV.sdf']

>  <tags>  (815) 
syndirella_placed,openbind_xx01zvns2b_c2_elabs,openbind_xx01zvns2b_c2_elabs_scored_6.2plus,syndirella_product,openbind_xx01zvns2b_c2_elabs_scored,openbind_xx01zvns2b_c2_elabs_scored_top80percent,BulkDock Fragalysis export

>  <subsites>  (815) 
1 - Z4590/B/203/1

>  <smiles>  (815) 
Cc1nn([C@H]2CCS(=O)(=O)C2)c2nc(C3CC3)cc(C(=O)Nc3ccc4c(c3)CN(C)C4=O)c12

>  <HIPPO Pose ID>  (815) 
125762

>  <energy_score>  (815) 
-56.303222

>  <inchikey>  (815) 
VQDGNIJTQSFEKY-KRWDZBQOSA-N

>  <gnina_score_min>  (815) 
6.526

>  <gnina_score>  (815) 
6.529

>  <ref_mols>  (815) 
Z3559a

>  <HIPPO Compound ID>  (815) 
187900

>  <distance_score>  (815) 
0.47556

>  <rmsd(smina/fragmenstein)>  (815) 
0.184

>  <ref_pdb>  (815) 
Z3559a

>  <inspiration_score>  (815) 
None

$$$$
P125763
     RDKit          3D

 34 40  0  0  0  0  0  0  0  0999 V2000
   -9.9478    1.0343   -8.6788 O   0  0  0  0  0  0  0  0  0  0  0  0
   -9.3980    2.0580   -8.3353 C   0  0  0  0  0  0  0  0  0  0  0  0
   -9.2783    2.5282   -7.0445 N   0  0  0  0  0  0  0  0  0  0  0  0
   -8.6140    3.7992   -6.9771 C   0  0  0  0  0  0  0  0  0  0  0  0
   -8.3611    4.1164   -8.4117 C   0  0  0  0  0  0  0  0  0  0  0  0
   -7.8075    5.2438   -8.9829 C   0  0  0  0  0  0  0  0  0  0  0  0
   -7.6854    5.2819  -10.3776 C   0  0  0  0  0  0  0  0  0  0  0  0
   -8.0964    4.2004  -11.1838 C   0  0  0  0  0  0  0  0  0  0  0  0
   -7.9366    4.2588  -12.5693 N   0  0  0  0  0  0  0  0  0  0  0  0
   -7.4180    5.4024  -13.4739 C   0  0  0  0  0  0  0  0  0  0  0  0
   -7.1167    6.4994  -13.2093 O   0  0  0  0  0  0  0  0  0  0  0  0
   -7.3086    4.9969  -14.8915 C   0  0  0  0  0  0  0  0  0  0  0  0
   -8.4113    4.4763  -15.5716 C   0  0  0  0  0  0  0  0  0  0  0  0
   -8.3451    4.2672  -16.9489 C   0  0  0  0  0  0  0  0  0  0  0  0
   -9.5765    3.7952  -17.6925 C   0  0  0  0  0  0  0  0  0  0  0  0
   -9.7085    3.9884  -19.1816 C   0  0  0  0  0  0  0  0  0  0  0  0
   -9.4798    2.6153  -18.6269 C   0  0  0  0  0  0  0  0  0  0  0  0
   -7.2334    4.5414  -17.6663 N   0  0  0  0  0  0  0  0  0  0  0  0
   -6.1773    5.0293  -16.9871 C   0  0  0  0  0  0  0  0  0  0  0  0
   -6.1377    5.2672  -15.6196 C   0  0  0  0  0  0  0  0  0  0  0  0
   -4.8265    5.7304  -15.3916 C   0  0  0  0  0  0  0  0  0  0  0  0
   -4.2337    6.0880  -13.9956 C   0  0  0  0  0  0  0  0  0  0  0  0
   -4.1654    7.5389  -13.5919 C   0  0  0  0  0  0  0  0  0  0  0  0
   -2.9018    6.7887  -13.8908 C   0  0  0  0  0  0  0  0  0  0  0  0
   -4.0889    5.7903  -16.4993 N   0  0  0  0  0  0  0  0  0  0  0  0
   -4.9272    5.3804  -17.4954 N   0  0  0  0  0  0  0  0  0  0  0  0
   -4.4452    5.3441  -18.8398 C   0  0  0  0  0  0  0  0  0  0  0  0
   -3.0745    5.5518  -19.0810 C   0  0  0  0  0  0  0  0  0  0  0  0
   -2.5577    5.4660  -20.3767 C   0  0  0  0  0  0  0  0  0  0  0  0
   -3.4048    5.1953  -21.4472 C   0  0  0  0  0  0  0  0  0  0  0  0
   -4.7666    5.0093  -21.2210 C   0  0  0  0  0  0  0  0  0  0  0  0
   -5.2876    5.0796  -19.9239 C   0  0  0  0  0  0  0  0  0  0  0  0
   -8.6576    3.0645  -10.5975 C   0  0  0  0  0  0  0  0  0  0  0  0
   -8.7903    3.0619   -9.2180 C   0  0  0  0  0  0  0  0  0  0  0  0
  1  2  2  0
  2  3  1  0
  3  4  1  0
  4  5  1  0
  5  6  2  0
  6  7  1  0
  7  8  2  0
  8  9  1  0
  9 10  1  0
 10 11  2  0
 10 12  1  0
 12 13  2  0
 13 14  1  0
 14 15  1  0
 15 16  1  0
 16 17  1  0
 14 18  2  0
 18 19  1  0
 19 20  2  0
 20 21  1  0
 21 22  1  0
 22 23  1  0
 23 24  1  0
 21 25  2  0
 25 26  1  0
 26 27  1  0
 27 28  2  0
 28 29  1  0
 29 30  2  0
 30 31  1  0
 31 32  2  0
  8 33  1  0
 33 34  2  0
 34  2  1  0
 34  5  1  0
 20 12  1  0
 24 22  1  0
 32 27  1  0
 17 15  1  0
 26 19  1  0
M  END
>  <name>  (816) 
P125763

>  <alias>  (816) 
None

>  <smina_score_min>  (816) 
-9.792

>  <exports>  (816) 
['/opt/xchem-fragalysis-2/maxwin/BulkDock/OUTPUTS/openbind_xx01zvns2b_c2_elabs_1LOUTNY.sdf', '/opt/xchem-fragalysis-2/maxwin/BulkDock/OUTPUTS/openbind_xx01zvns2b_c2_elabs_1LSYIIV.sdf']

>  <tags>  (816) 
syndirella_placed,openbind_xx01zvns2b_c2_elabs,openbind_xx01zvns2b_c2_elabs_scored_6.2plus,syndirella_product,openbind_xx01zvns2b_c2_elabs_scored,openbind_xx01zvns2b_c2_elabs_scored_top80percent,BulkDock Fragalysis export

>  <subsites>  (816) 
1 - Z4590/B/203/1

>  <smiles>  (816) 
O=C1NCc2ccc(NC(=O)c3cc(C4CC4)nc4c3c(C3CC3)nn4-c3ccccc3)cc21

>  <HIPPO Pose ID>  (816) 
125763

>  <energy_score>  (816) 
-27.660091

>  <inchikey>  (816) 
LGLVTJKMGDCPDF-UHFFFAOYSA-N

>  <gnina_score_min>  (816) 
6.574

>  <gnina_score>  (816) 
6.768

>  <ref_mols>  (816) 
Z3559a

>  <HIPPO Compound ID>  (816) 
187901

>  <distance_score>  (816) 
0.379488

>  <rmsd(smina/fragmenstein)>  (816) 
0.852

>  <ref_pdb>  (816) 
Z3559a

>  <inspiration_score>  (816) 
None

$$$$
P125764
     RDKit          3D

 34 40  0  0  0  0  0  0  0  0999 V2000
   -8.3075    4.4265   -6.1226 O   0  0  0  0  0  0  0  0  0  0  0  0
   -8.5524    3.7219   -7.0837 C   0  0  0  0  0  0  0  0  0  0  0  0
   -9.0345    2.4304   -7.0794 N   0  0  0  0  0  0  0  0  0  0  0  0
   -8.9937    1.8269   -8.3956 C   0  0  0  0  0  0  0  0  0  0  0  0
   -8.6140    2.9720   -9.2740 C   0  0  0  0  0  0  0  0  0  0  0  0
   -8.4735    3.0308  -10.6527 C   0  0  0  0  0  0  0  0  0  0  0  0
   -8.0749    4.2443  -11.2294 C   0  0  0  0  0  0  0  0  0  0  0  0
   -7.9095    4.3113  -12.6133 N   0  0  0  0  0  0  0  0  0  0  0  0
   -7.4057    5.4654  -13.5092 C   0  0  0  0  0  0  0  0  0  0  0  0
   -7.1234    6.5650  -13.2388 O   0  0  0  0  0  0  0  0  0  0  0  0
   -7.2863    5.0480  -14.9217 C   0  0  0  0  0  0  0  0  0  0  0  0
   -8.3871    4.5089  -15.5910 C   0  0  0  0  0  0  0  0  0  0  0  0
   -8.3218    4.2761  -16.9638 C   0  0  0  0  0  0  0  0  0  0  0  0
   -9.5560    3.7920  -17.6955 C   0  0  0  0  0  0  0  0  0  0  0  0
   -9.7050    3.9879  -19.1824 C   0  0  0  0  0  0  0  0  0  0  0  0
   -9.4601    2.6151  -18.6335 C   0  0  0  0  0  0  0  0  0  0  0  0
   -7.2103    4.5392  -17.6862 N   0  0  0  0  0  0  0  0  0  0  0  0
   -6.1559    5.0443  -17.0148 C   0  0  0  0  0  0  0  0  0  0  0  0
   -6.1167    5.3075  -15.6516 C   0  0  0  0  0  0  0  0  0  0  0  0
   -4.8076    5.7772  -15.4300 C   0  0  0  0  0  0  0  0  0  0  0  0
   -4.2201    6.1655  -14.0404 C   0  0  0  0  0  0  0  0  0  0  0  0
   -4.1803    7.6228  -13.6566 C   0  0  0  0  0  0  0  0  0  0  0  0
   -2.9024    6.8943  -13.9483 C   0  0  0  0  0  0  0  0  0  0  0  0
   -4.0691    5.8165  -16.5378 N   0  0  0  0  0  0  0  0  0  0  0  0
   -4.9075    5.3945  -17.5280 N   0  0  0  0  0  0  0  0  0  0  0  0
   -4.4321    5.3568  -18.8743 C   0  0  0  0  0  0  0  0  0  0  0  0
   -3.0621    5.5583  -19.1220 C   0  0  0  0  0  0  0  0  0  0  0  0
   -2.5549    5.4865  -20.4222 C   0  0  0  0  0  0  0  0  0  0  0  0
   -3.4111    5.2369  -21.4909 C   0  0  0  0  0  0  0  0  0  0  0  0
   -4.7719    5.0527  -21.2574 C   0  0  0  0  0  0  0  0  0  0  0  0
   -5.2828    5.1069  -19.9553 C   0  0  0  0  0  0  0  0  0  0  0  0
   -7.8315    5.3717  -10.4202 C   0  0  0  0  0  0  0  0  0  0  0  0
   -7.9627    5.3012   -9.0300 C   0  0  0  0  0  0  0  0  0  0  0  0
   -8.3521    4.0928   -8.4902 C   0  0  0  0  0  0  0  0  0  0  0  0
  1  2  2  0
  2  3  1  0
  3  4  1  0
  4  5  1  0
  5  6  2  0
  6  7  1  0
  7  8  1  0
  8  9  1  0
  9 10  2  0
  9 11  1  0
 11 12  2  0
 12 13  1  0
 13 14  1  0
 14 15  1  0
 15 16  1  0
 13 17  2  0
 17 18  1  0
 18 19  2  0
 19 20  1  0
 20 21  1  0
 21 22  1  0
 22 23  1  0
 20 24  2  0
 24 25  1  0
 25 26  1  0
 26 27  2  0
 27 28  1  0
 28 29  2  0
 29 30  1  0
 30 31  2  0
  7 32  2  0
 32 33  1  0
 33 34  2  0
 34  2  1  0
 34  5  1  0
 19 11  1  0
 23 21  1  0
 31 26  1  0
 16 14  1  0
 25 18  1  0
M  END
>  <name>  (817) 
P125764

>  <alias>  (817) 
None

>  <smina_score_min>  (817) 
-9.854

>  <exports>  (817) 
['/opt/xchem-fragalysis-2/maxwin/BulkDock/OUTPUTS/openbind_xx01zvns2b_c2_elabs_1LOUTNY.sdf', '/opt/xchem-fragalysis-2/maxwin/BulkDock/OUTPUTS/openbind_xx01zvns2b_c2_elabs_1LSYIIV.sdf']

>  <tags>  (817) 
syndirella_placed,openbind_xx01zvns2b_c2_elabs,openbind_xx01zvns2b_c2_elabs_scored_6.2plus,syndirella_product,openbind_xx01zvns2b_c2_elabs_scored,openbind_xx01zvns2b_c2_elabs_scored_top80percent,BulkDock Fragalysis export

>  <subsites>  (817) 
1 - Z4590/B/203/1

>  <smiles>  (817) 
O=C1NCc2cc(NC(=O)c3cc(C4CC4)nc4c3c(C3CC3)nn4-c3ccccc3)ccc21

>  <HIPPO Pose ID>  (817) 
125764

>  <energy_score>  (817) 
-64.113732

>  <inchikey>  (817) 
DOALGDVKTPBCTD-UHFFFAOYSA-N

>  <gnina_score_min>  (817) 
6.681

>  <gnina_score>  (817) 
6.751

>  <ref_mols>  (817) 
Z3559a

>  <HIPPO Compound ID>  (817) 
187902

>  <distance_score>  (817) 
0.36637

>  <rmsd(smina/fragmenstein)>  (817) 
1.053

>  <ref_pdb>  (817) 
Z3559a

>  <inspiration_score>  (817) 
None

$$$$
P125765
     RDKit          3D

 34 40  0  0  0  0  0  0  0  0999 V2000
  -10.1287    2.2173   -6.1487 C   0  0  0  0  0  0  0  0  0  0  0  0
   -8.9851    2.5667   -6.9675 N   0  0  0  0  0  0  0  0  0  0  0  0
   -8.7222    4.0090   -7.0446 C   0  0  0  0  0  0  0  0  0  0  0  0
   -8.4118    4.2895   -8.4782 C   0  0  0  0  0  0  0  0  0  0  0  0
   -8.0231    5.4767   -9.0696 C   0  0  0  0  0  0  0  0  0  0  0  0
   -7.8377    5.4956  -10.4545 C   0  0  0  0  0  0  0  0  0  0  0  0
   -8.0316    4.3369  -11.2245 C   0  0  0  0  0  0  0  0  0  0  0  0
   -7.8551    4.3630  -12.6073 N   0  0  0  0  0  0  0  0  0  0  0  0
   -7.3817    5.5024  -13.5372 C   0  0  0  0  0  0  0  0  0  0  0  0
   -7.1389    6.6199  -13.3019 O   0  0  0  0  0  0  0  0  0  0  0  0
   -7.2625    5.0497  -14.9361 C   0  0  0  0  0  0  0  0  0  0  0  0
   -8.3638    4.4998  -15.5939 C   0  0  0  0  0  0  0  0  0  0  0  0
   -8.3041    4.2615  -16.9659 C   0  0  0  0  0  0  0  0  0  0  0  0
   -9.5428    3.7781  -17.6897 C   0  0  0  0  0  0  0  0  0  0  0  0
   -9.7077    3.9869  -19.1732 C   0  0  0  0  0  0  0  0  0  0  0  0
   -9.4527    2.6101  -18.6388 C   0  0  0  0  0  0  0  0  0  0  0  0
   -7.1960    4.5241  -17.6957 N   0  0  0  0  0  0  0  0  0  0  0  0
   -6.1427    5.0418  -17.0326 C   0  0  0  0  0  0  0  0  0  0  0  0
   -6.0999    5.3114  -15.6720 C   0  0  0  0  0  0  0  0  0  0  0  0
   -4.8000    5.8018  -15.4568 C   0  0  0  0  0  0  0  0  0  0  0  0
   -4.2185    6.2307  -14.0802 C   0  0  0  0  0  0  0  0  0  0  0  0
   -4.0734    5.2152  -12.9751 C   0  0  0  0  0  0  0  0  0  0  0  0
   -2.8529    5.7341  -13.6745 C   0  0  0  0  0  0  0  0  0  0  0  0
   -4.0704    5.8684  -16.5696 N   0  0  0  0  0  0  0  0  0  0  0  0
   -4.9085    5.4267  -17.5554 N   0  0  0  0  0  0  0  0  0  0  0  0
   -4.4471    5.4174  -18.9081 C   0  0  0  0  0  0  0  0  0  0  0  0
   -3.1116    5.7685  -19.1784 C   0  0  0  0  0  0  0  0  0  0  0  0
   -2.6200    5.7490  -20.4865 C   0  0  0  0  0  0  0  0  0  0  0  0
   -3.4545    5.3843  -21.5388 C   0  0  0  0  0  0  0  0  0  0  0  0
   -4.7810    5.0472  -21.2828 C   0  0  0  0  0  0  0  0  0  0  0  0
   -5.2789    5.0643  -19.9750 C   0  0  0  0  0  0  0  0  0  0  0  0
   -8.4169    3.1411  -10.6109 C   0  0  0  0  0  0  0  0  0  0  0  0
   -8.6083    3.1397   -9.2364 C   0  0  0  0  0  0  0  0  0  0  0  0
   -9.0611    2.0261   -8.3446 C   0  0  0  0  0  0  0  0  0  0  0  0
  1  2  1  0
  2  3  1  0
  3  4  1  0
  4  5  2  0
  5  6  1  0
  6  7  2  0
  7  8  1  0
  8  9  1  0
  9 10  2  0
  9 11  1  0
 11 12  2  0
 12 13  1  0
 13 14  1  0
 14 15  1  0
 15 16  1  0
 13 17  2  0
 17 18  1  0
 18 19  2  0
 19 20  1  0
 20 21  1  0
 21 22  1  0
 22 23  1  0
 20 24  2  0
 24 25  1  0
 25 26  1  0
 26 27  2  0
 27 28  1  0
 28 29  2  0
 29 30  1  0
 30 31  2  0
  7 32  1  0
 32 33  2  0
 33 34  1  0
 34  2  1  0
 33  4  1  0
 19 11  1  0
 23 21  1  0
 31 26  1  0
 16 14  1  0
 25 18  1  0
M  END
>  <name>  (818) 
P125765

>  <alias>  (818) 
None

>  <smina_score_min>  (818) 
-9.633

>  <exports>  (818) 
['/opt/xchem-fragalysis-2/maxwin/BulkDock/OUTPUTS/openbind_xx01zvns2b_c2_elabs_1LOUTNY.sdf', '/opt/xchem-fragalysis-2/maxwin/BulkDock/OUTPUTS/openbind_xx01zvns2b_c2_elabs_1LSYIIV.sdf']

>  <tags>  (818) 
syndirella_placed,openbind_xx01zvns2b_c2_elabs,openbind_xx01zvns2b_c2_elabs_scored_6.2plus,syndirella_product,openbind_xx01zvns2b_c2_elabs_scored,openbind_xx01zvns2b_c2_elabs_scored_top80percent,BulkDock Fragalysis export

>  <subsites>  (818) 
1 - Z4590/B/203/1

>  <smiles>  (818) 
CN1Cc2ccc(NC(=O)c3cc(C4CC4)nc4c3c(C3CC3)nn4-c3ccccc3)cc2C1

>  <HIPPO Pose ID>  (818) 
125765

>  <energy_score>  (818) 
-54.893204

>  <inchikey>  (818) 
FUQRJVBCIRTVOZ-UHFFFAOYSA-N

>  <gnina_score_min>  (818) 
6.774

>  <gnina_score>  (818) 
6.843

>  <ref_mols>  (818) 
Z3559a

>  <HIPPO Compound ID>  (818) 
187903

>  <distance_score>  (818) 
0.401779

>  <rmsd(smina/fragmenstein)>  (818) 
0.646

>  <ref_pdb>  (818) 
Z3559a

>  <inspiration_score>  (818) 
None

$$$$
P125766
     RDKit          3D

 34 39  0  0  0  0  0  0  0  0999 V2000
   -4.8860    8.6700  -22.8557 C   0  0  0  0  0  0  0  0  0  0  0  0
   -4.8167    8.3583  -21.4147 C   0  0  0  0  0  0  0  0  0  0  0  0
   -4.7400    9.1276  -20.2750 C   0  0  0  0  0  0  0  0  0  0  0  0
   -4.7054    8.2220  -19.1870 C   0  0  0  0  0  0  0  0  0  0  0  0
   -4.7636    6.9505  -19.7258 C   0  0  0  0  0  0  0  0  0  0  0  0
   -4.7309    5.5678  -19.1737 C   0  0  0  0  0  0  0  0  0  0  0  0
   -5.0080    5.5309  -17.7466 N   0  0  0  0  0  0  0  0  0  0  0  0
   -4.0774    5.9490  -16.8461 N   0  0  0  0  0  0  0  0  0  0  0  0
   -4.7113    5.8242  -15.6737 C   0  0  0  0  0  0  0  0  0  0  0  0
   -6.0115    5.2891  -15.8031 C   0  0  0  0  0  0  0  0  0  0  0  0
   -7.0948    4.9547  -14.9791 C   0  0  0  0  0  0  0  0  0  0  0  0
   -7.0244    5.2850  -13.5341 C   0  0  0  0  0  0  0  0  0  0  0  0
   -6.4630    6.2671  -13.2416 O   0  0  0  0  0  0  0  0  0  0  0  0
   -7.6989    4.2125  -12.6450 N   0  0  0  0  0  0  0  0  0  0  0  0
   -7.8987    4.1748  -11.2661 C   0  0  0  0  0  0  0  0  0  0  0  0
   -7.4703    5.2491  -10.4552 C   0  0  0  0  0  0  0  0  0  0  0  0
   -7.6590    5.2350   -9.0692 C   0  0  0  0  0  0  0  0  0  0  0  0
   -8.2766    4.1275   -8.5311 C   0  0  0  0  0  0  0  0  0  0  0  0
   -8.7025    3.0769   -9.3204 C   0  0  0  0  0  0  0  0  0  0  0  0
   -8.5290    3.0664  -10.6942 C   0  0  0  0  0  0  0  0  0  0  0  0
   -9.4033    2.1406   -8.4472 C   0  0  0  0  0  0  0  0  0  0  0  0
   -9.9937    1.1595   -8.8492 O   0  0  0  0  0  0  0  0  0  0  0  0
   -9.3318    2.6529   -7.1811 N   0  0  0  0  0  0  0  0  0  0  0  0
  -10.0582    2.0999   -6.0683 C   0  0  0  0  0  0  0  0  0  0  0  0
   -8.6844    3.8532   -7.1549 C   0  0  0  0  0  0  0  0  0  0  0  0
   -8.5024    4.6250   -6.2299 O   0  0  0  0  0  0  0  0  0  0  0  0
   -8.2404    4.4332  -15.5939 C   0  0  0  0  0  0  0  0  0  0  0  0
   -8.2790    4.2638  -16.9850 C   0  0  0  0  0  0  0  0  0  0  0  0
   -9.5503    3.7811  -17.6498 C   0  0  0  0  0  0  0  0  0  0  0  0
   -9.4937    2.6270  -18.6207 C   0  0  0  0  0  0  0  0  0  0  0  0
   -9.7903    4.0079  -19.1218 C   0  0  0  0  0  0  0  0  0  0  0  0
   -7.2336    4.5816  -17.7853 N   0  0  0  0  0  0  0  0  0  0  0  0
   -6.1615    5.0845  -17.1605 C   0  0  0  0  0  0  0  0  0  0  0  0
   -4.8274    7.0378  -21.0881 O   0  0  0  0  0  0  0  0  0  0  0  0
  1  2  1  0
  2  3  2  0
  3  4  1  0
  4  5  2  0
  5  6  1  0
  6  7  1  0
  7  8  1  0
  8  9  2  0
  9 10  1  0
 10 11  2  0
 11 12  1  0
 12 13  2  0
 12 14  1  0
 14 15  1  0
 15 16  2  0
 16 17  1  0
 17 18  2  0
 18 19  1  0
 19 20  2  0
 19 21  1  0
 21 22  2  0
 21 23  1  0
 23 24  1  0
 23 25  1  0
 25 26  2  0
 11 27  1  0
 27 28  2  0
 28 29  1  0
 29 30  1  0
 30 31  1  0
 28 32  1  0
 32 33  2  0
  5 34  1  0
 34  2  1  0
 33  7  1  0
 33 10  1  0
 20 15  1  0
 31 29  1  0
 25 18  1  0
M  END
>  <name>  (819) 
P125766

>  <alias>  (819) 
None

>  <smina_score_min>  (819) 
-9.208

>  <exports>  (819) 
['/opt/xchem-fragalysis-2/maxwin/BulkDock/OUTPUTS/openbind_xx01zvns2b_c2_elabs_1LOUTNY.sdf', '/opt/xchem-fragalysis-2/maxwin/BulkDock/OUTPUTS/openbind_xx01zvns2b_c2_elabs_1LSYIIV.sdf']

>  <tags>  (819) 
syndirella_placed,openbind_xx01zvns2b_c2_elabs,openbind_xx01zvns2b_c2_elabs_scored_6.2plus,syndirella_product,openbind_xx01zvns2b_c2_elabs_scored,openbind_xx01zvns2b_c2_elabs_scored_top80percent,BulkDock Fragalysis export

>  <subsites>  (819) 
1 - Z4590/B/203/1

>  <smiles>  (819) 
Cc1ccc(Cn2ncc3c(C(=O)Nc4ccc5c(c4)C(=O)N(C)C5=O)cc(C4CC4)nc32)o1

>  <HIPPO Pose ID>  (819) 
125766

>  <energy_score>  (819) 
-39.259466

>  <inchikey>  (819) 
QTDPRCPGTZJVGN-UHFFFAOYSA-N

>  <gnina_score_min>  (819) 
6.277

>  <gnina_score>  (819) 
6.428

>  <ref_mols>  (819) 
Z3559a

>  <HIPPO Compound ID>  (819) 
187904

>  <distance_score>  (819) 
0.363125

>  <rmsd(smina/fragmenstein)>  (819) 
0.53

>  <ref_pdb>  (819) 
Z3559a

>  <inspiration_score>  (819) 
None

$$$$
P125767
     RDKit          3D

 34 39  0  0  0  0  0  0  0  0999 V2000
   -6.3602    4.7432   -6.2585 C   0  0  0  0  0  0  0  0  0  0  0  0
   -7.6322    4.0536   -5.7159 C   0  0  0  0  0  0  0  0  0  0  0  0
   -8.8323    4.0894   -6.5460 N   0  0  0  0  0  0  0  0  0  0  0  0
   -9.0028    5.4598   -7.0364 C   0  0  0  0  0  0  0  0  0  0  0  0
   -8.5770    5.4163   -8.4681 C   0  0  0  0  0  0  0  0  0  0  0  0
   -8.3319    6.4790   -9.3058 C   0  0  0  0  0  0  0  0  0  0  0  0
   -8.0491    6.2046  -10.6397 C   0  0  0  0  0  0  0  0  0  0  0  0
   -8.0237    4.8878  -11.1354 C   0  0  0  0  0  0  0  0  0  0  0  0
   -7.8130    4.7070  -12.5079 N   0  0  0  0  0  0  0  0  0  0  0  0
   -7.4678    5.7331  -13.6166 C   0  0  0  0  0  0  0  0  0  0  0  0
   -7.3815    6.8982  -13.5705 O   0  0  0  0  0  0  0  0  0  0  0  0
   -7.2437    5.1290  -14.9420 C   0  0  0  0  0  0  0  0  0  0  0  0
   -8.2540    4.4263  -15.6061 C   0  0  0  0  0  0  0  0  0  0  0  0
   -8.0878    4.0881  -16.9544 C   0  0  0  0  0  0  0  0  0  0  0  0
   -9.1139    3.2381  -17.6568 C   0  0  0  0  0  0  0  0  0  0  0  0
   -9.1250    3.1746  -19.1627 C   0  0  0  0  0  0  0  0  0  0  0  0
  -10.2601    3.8291  -18.4394 C   0  0  0  0  0  0  0  0  0  0  0  0
   -6.9969    4.4449  -17.6718 N   0  0  0  0  0  0  0  0  0  0  0  0
   -6.0537    5.1111  -16.9929 C   0  0  0  0  0  0  0  0  0  0  0  0
   -6.0791    5.4550  -15.6541 C   0  0  0  0  0  0  0  0  0  0  0  0
   -4.8332    6.0994  -15.4289 C   0  0  0  0  0  0  0  0  0  0  0  0
   -4.3086    6.6762  -14.1655 C   0  0  0  0  0  0  0  0  0  0  0  0
   -4.0788    6.1377  -16.5372 N   0  0  0  0  0  0  0  0  0  0  0  0
   -4.8779    5.6003  -17.4933 N   0  0  0  0  0  0  0  0  0  0  0  0
   -4.4063    5.4744  -18.8659 C   0  0  0  0  0  0  0  0  0  0  0  0
   -4.4314    6.7674  -19.6521 C   0  0  0  0  0  0  0  0  0  0  0  0
   -5.0098    6.7881  -20.9298 C   0  0  0  0  0  0  0  0  0  0  0  0
   -4.9760    7.9430  -21.7149 C   0  0  0  0  0  0  0  0  0  0  0  0
   -4.3683    9.0984  -21.2322 C   0  0  0  0  0  0  0  0  0  0  0  0
   -3.7834    9.0942  -19.9686 C   0  0  0  0  0  0  0  0  0  0  0  0
   -3.8054    7.9348  -19.1890 C   0  0  0  0  0  0  0  0  0  0  0  0
   -8.2410    3.8098  -10.2640 C   0  0  0  0  0  0  0  0  0  0  0  0
   -8.5012    4.0977   -8.9222 C   0  0  0  0  0  0  0  0  0  0  0  0
   -8.8088    3.2022   -7.7582 C   0  0  0  0  0  0  0  0  0  0  0  0
  1  2  1  0
  2  3  1  0
  3  4  1  0
  4  5  1  0
  5  6  2  0
  6  7  1  0
  7  8  2  0
  8  9  1  0
  9 10  1  0
 10 11  2  0
 10 12  1  0
 12 13  2  0
 13 14  1  0
 14 15  1  0
 15 16  1  0
 16 17  1  0
 14 18  2  0
 18 19  1  0
 19 20  2  0
 20 21  1  0
 21 22  1  0
 21 23  2  0
 23 24  1  0
 24 25  1  0
 25 26  1  0
 26 27  2  0
 27 28  1  0
 28 29  2  0
 29 30  1  0
 30 31  2  0
  8 32  1  0
 32 33  2  0
 33 34  1  0
 34  3  1  0
 33  5  1  0
 20 12  1  0
 31 26  1  0
 17 15  1  0
 24 19  1  0
M  END
>  <name>  (820) 
P125767

>  <alias>  (820) 
None

>  <smina_score_min>  (820) 
-8.008

>  <exports>  (820) 
['/opt/xchem-fragalysis-2/maxwin/BulkDock/OUTPUTS/openbind_xx01zvns2b_c2_elabs_1LOUTNY.sdf', '/opt/xchem-fragalysis-2/maxwin/BulkDock/OUTPUTS/openbind_xx01zvns2b_c2_elabs_1LSYIIV.sdf']

>  <tags>  (820) 
syndirella_placed,openbind_xx01zvns2b_c2_elabs,openbind_xx01zvns2b_c2_elabs_scored_6.2plus,syndirella_product,openbind_xx01zvns2b_c2_elabs_scored,openbind_xx01zvns2b_c2_elabs_scored_top80percent,BulkDock Fragalysis export

>  <subsites>  (820) 
1 - Z4590/B/203/1

>  <smiles>  (820) 
CCN1Cc2ccc(NC(=O)c3cc(C4CC4)nc4c3c(C)nn4Cc3ccccc3)cc2C1

>  <HIPPO Pose ID>  (820) 
125767

>  <energy_score>  (820) 
-32.597281

>  <inchikey>  (820) 
KEJSNDSTZHJBQH-UHFFFAOYSA-N

>  <gnina_score_min>  (820) 
6.398

>  <gnina_score>  (820) 
6.542

>  <ref_mols>  (820) 
Z3559a

>  <HIPPO Compound ID>  (820) 
187905

>  <distance_score>  (820) 
1.005721

>  <rmsd(smina/fragmenstein)>  (820) 
0.838

>  <ref_pdb>  (820) 
Z3559a

>  <inspiration_score>  (820) 
None

$$$$
P125768
     RDKit          3D

 34 39  0  0  0  0  0  0  0  0999 V2000
   -4.1505    6.2626  -14.2102 C   0  0  0  0  0  0  0  0  0  0  0  0
   -4.6426    5.8785  -15.5576 C   0  0  0  0  0  0  0  0  0  0  0  0
   -3.8154    5.9718  -16.6132 N   0  0  0  0  0  0  0  0  0  0  0  0
   -4.5912    5.5952  -17.6577 N   0  0  0  0  0  0  0  0  0  0  0  0
   -4.0706    5.5933  -19.0145 C   0  0  0  0  0  0  0  0  0  0  0  0
   -4.1837    6.9355  -19.6994 C   0  0  0  0  0  0  0  0  0  0  0  0
   -3.5604    8.0783  -19.1751 C   0  0  0  0  0  0  0  0  0  0  0  0
   -3.6236    9.2983  -19.8517 C   0  0  0  0  0  0  0  0  0  0  0  0
   -4.2962    9.3886  -21.0681 C   0  0  0  0  0  0  0  0  0  0  0  0
   -4.9122    8.2607  -21.6044 C   0  0  0  0  0  0  0  0  0  0  0  0
   -4.8643    7.0438  -20.9210 C   0  0  0  0  0  0  0  0  0  0  0  0
   -5.8271    5.1628  -17.2821 C   0  0  0  0  0  0  0  0  0  0  0  0
   -6.7594    4.6632  -18.0948 N   0  0  0  0  0  0  0  0  0  0  0  0
   -7.9404    4.3595  -17.5184 C   0  0  0  0  0  0  0  0  0  0  0  0
   -8.9606    3.8843  -18.5208 C   0  0  0  0  0  0  0  0  0  0  0  0
  -10.4195    3.7050  -18.2624 C   0  0  0  0  0  0  0  0  0  0  0  0
   -9.5200    2.5007  -18.3774 C   0  0  0  0  0  0  0  0  0  0  0  0
   -8.1766    4.5417  -16.1446 C   0  0  0  0  0  0  0  0  0  0  0  0
   -7.1634    5.0794  -15.3338 C   0  0  0  0  0  0  0  0  0  0  0  0
   -7.3950    5.5213  -13.9418 C   0  0  0  0  0  0  0  0  0  0  0  0
   -7.1344    6.6317  -13.6934 O   0  0  0  0  0  0  0  0  0  0  0  0
   -7.8766    4.3777  -13.0248 N   0  0  0  0  0  0  0  0  0  0  0  0
   -8.0423    4.3352  -11.6401 C   0  0  0  0  0  0  0  0  0  0  0  0
   -7.6160    5.4163  -10.8376 C   0  0  0  0  0  0  0  0  0  0  0  0
   -7.7334    5.3894   -9.4410 C   0  0  0  0  0  0  0  0  0  0  0  0
   -8.3108    4.2790   -8.8653 C   0  0  0  0  0  0  0  0  0  0  0  0
   -8.7576    3.2334   -9.6714 C   0  0  0  0  0  0  0  0  0  0  0  0
   -8.6147    3.2139  -11.0482 C   0  0  0  0  0  0  0  0  0  0  0  0
   -9.4315    2.2640   -8.8098 C   0  0  0  0  0  0  0  0  0  0  0  0
   -9.9521    1.2413   -9.2001 O   0  0  0  0  0  0  0  0  0  0  0  0
   -9.3812    2.7676   -7.5224 N   0  0  0  0  0  0  0  0  0  0  0  0
   -9.6228    1.9253   -6.3861 C   0  0  0  0  0  0  0  0  0  0  0  0
   -8.5815    3.9681   -7.4324 C   0  0  0  0  0  0  0  0  0  0  0  0
   -5.9240    5.3765  -15.9239 C   0  0  0  0  0  0  0  0  0  0  0  0
  1  2  1  0
  2  3  2  0
  3  4  1  0
  4  5  1  0
  5  6  1  0
  6  7  2  0
  7  8  1  0
  8  9  2  0
  9 10  1  0
 10 11  2  0
  4 12  1  0
 12 13  2  0
 13 14  1  0
 14 15  1  0
 15 16  1  0
 16 17  1  0
 14 18  2  0
 18 19  1  0
 19 20  1  0
 20 21  2  0
 20 22  1  0
 22 23  1  0
 23 24  2  0
 24 25  1  0
 25 26  2  0
 26 27  1  0
 27 28  2  0
 27 29  1  0
 29 30  2  0
 29 31  1  0
 31 32  1  0
 31 33  1  0
 19 34  2  0
 34  2  1  0
 11  6  1  0
 34 12  1  0
 17 15  1  0
 28 23  1  0
 33 26  1  0
M  END
>  <name>  (821) 
P125768

>  <alias>  (821) 
None

>  <smina_score_min>  (821) 
-9.19

>  <exports>  (821) 
['/opt/xchem-fragalysis-2/maxwin/BulkDock/OUTPUTS/openbind_xx01zvns2b_c2_elabs_1LOUTNY.sdf', '/opt/xchem-fragalysis-2/maxwin/BulkDock/OUTPUTS/openbind_xx01zvns2b_c2_elabs_1LSYIIV.sdf']

>  <tags>  (821) 
syndirella_placed,openbind_xx01zvns2b_c2_elabs,openbind_xx01zvns2b_c2_elabs_scored_6.2plus,syndirella_product,openbind_xx01zvns2b_c2_elabs_scored,openbind_xx01zvns2b_c2_elabs_scored_top80percent,BulkDock Fragalysis export

>  <subsites>  (821) 
1 - Z4590/B/203/1

>  <smiles>  (821) 
Cc1nn(Cc2ccccc2)c2nc(C3CC3)cc(C(=O)Nc3ccc4c(c3)C(=O)N(C)C4)c12

>  <HIPPO Pose ID>  (821) 
125768

>  <energy_score>  (821) 
-11.934747

>  <inchikey>  (821) 
NDEHDNMEPVSHQD-UHFFFAOYSA-N

>  <gnina_score_min>  (821) 
6.565

>  <gnina_score>  (821) 
6.631

>  <ref_mols>  (821) 
Z3559a

>  <HIPPO Compound ID>  (821) 
187906

>  <distance_score>  (821) 
0.684246

>  <rmsd(smina/fragmenstein)>  (821) 
0.891

>  <ref_pdb>  (821) 
Z3559a

>  <inspiration_score>  (821) 
None

$$$$
P125769
     RDKit          3D

 34 39  0  0  0  0  0  0  0  0999 V2000
   -4.0115    6.2449  -14.4591 C   0  0  0  0  0  0  0  0  0  0  0  0
   -4.7606    5.8347  -15.6740 C   0  0  0  0  0  0  0  0  0  0  0  0
   -4.1751    5.9721  -16.8757 N   0  0  0  0  0  0  0  0  0  0  0  0
   -5.1004    5.5112  -17.7462 N   0  0  0  0  0  0  0  0  0  0  0  0
   -4.9517    5.5580  -19.1999 C   0  0  0  0  0  0  0  0  0  0  0  0
   -3.6650    6.1511  -19.7221 C   0  0  0  0  0  0  0  0  0  0  0  0
   -3.6905    7.3311  -20.4825 C   0  0  0  0  0  0  0  0  0  0  0  0
   -2.5118    7.8671  -21.0050 C   0  0  0  0  0  0  0  0  0  0  0  0
   -1.2950    7.2283  -20.7780 C   0  0  0  0  0  0  0  0  0  0  0  0
   -1.2562    6.0546  -20.0292 C   0  0  0  0  0  0  0  0  0  0  0  0
   -2.4330    5.5165  -19.5068 C   0  0  0  0  0  0  0  0  0  0  0  0
   -6.2325    5.0567  -17.1254 C   0  0  0  0  0  0  0  0  0  0  0  0
   -7.2987    4.5360  -17.7440 N   0  0  0  0  0  0  0  0  0  0  0  0
   -8.3480    4.2389  -16.9491 C   0  0  0  0  0  0  0  0  0  0  0  0
   -9.6131    3.7651  -17.6285 C   0  0  0  0  0  0  0  0  0  0  0  0
   -9.8303    3.9953  -19.1050 C   0  0  0  0  0  0  0  0  0  0  0  0
   -9.5499    2.6123  -18.6014 C   0  0  0  0  0  0  0  0  0  0  0  0
   -8.3143    4.4323  -15.5631 C   0  0  0  0  0  0  0  0  0  0  0  0
   -7.1709    4.9683  -14.9503 C   0  0  0  0  0  0  0  0  0  0  0  0
   -7.1693    5.3544  -13.5168 C   0  0  0  0  0  0  0  0  0  0  0  0
   -6.6934    6.3875  -13.2505 O   0  0  0  0  0  0  0  0  0  0  0  0
   -7.7713    4.2588  -12.5989 N   0  0  0  0  0  0  0  0  0  0  0  0
   -7.9915    4.2508  -11.2107 C   0  0  0  0  0  0  0  0  0  0  0  0
   -8.5866    3.1148  -10.6439 C   0  0  0  0  0  0  0  0  0  0  0  0
   -8.7658    3.0930   -9.2666 C   0  0  0  0  0  0  0  0  0  0  0  0
   -8.3596    4.1326   -8.4319 C   0  0  0  0  0  0  0  0  0  0  0  0
   -7.7924    5.2651   -8.9739 C   0  0  0  0  0  0  0  0  0  0  0  0
   -7.6203    5.3188  -10.3616 C   0  0  0  0  0  0  0  0  0  0  0  0
   -7.0656    6.4380  -10.8405 F   0  0  0  0  0  0  0  0  0  0  0  0
   -8.6445    3.7947   -7.0086 C   0  0  0  0  0  0  0  0  0  0  0  0
   -9.3070    2.5261   -7.1141 N   0  0  0  0  0  0  0  0  0  0  0  0
   -9.3969    2.0771   -8.4142 C   0  0  0  0  0  0  0  0  0  0  0  0
   -9.9406    1.0618   -8.7890 O   0  0  0  0  0  0  0  0  0  0  0  0
   -6.0744    5.2915  -15.7728 C   0  0  0  0  0  0  0  0  0  0  0  0
  1  2  1  0
  2  3  2  0
  3  4  1  0
  4  5  1  0
  5  6  1  0
  6  7  2  0
  7  8  1  0
  8  9  2  0
  9 10  1  0
 10 11  2  0
  4 12  1  0
 12 13  2  0
 13 14  1  0
 14 15  1  0
 15 16  1  0
 16 17  1  0
 14 18  2  0
 18 19  1  0
 19 20  1  0
 20 21  2  0
 20 22  1  0
 22 23  1  0
 23 24  2  0
 24 25  1  0
 25 26  2  0
 26 27  1  0
 27 28  2  0
 28 29  1  0
 26 30  1  0
 30 31  1  0
 31 32  1  0
 32 33  2  0
 19 34  2  0
 34  2  1  0
 11  6  1  0
 34 12  1  0
 17 15  1  0
 28 23  1  0
 32 25  1  0
M  END
>  <name>  (822) 
P125769

>  <alias>  (822) 
None

>  <smina_score_min>  (822) 
-9.245

>  <exports>  (822) 
['/opt/xchem-fragalysis-2/maxwin/BulkDock/OUTPUTS/openbind_xx01zvns2b_c2_elabs_1LOUTNY.sdf', '/opt/xchem-fragalysis-2/maxwin/BulkDock/OUTPUTS/openbind_xx01zvns2b_c2_elabs_1LSYIIV.sdf']

>  <tags>  (822) 
syndirella_placed,openbind_xx01zvns2b_c2_elabs,openbind_xx01zvns2b_c2_elabs_scored_6.2plus,syndirella_product,openbind_xx01zvns2b_c2_elabs_scored,openbind_xx01zvns2b_c2_elabs_scored_top80percent,BulkDock Fragalysis export

>  <subsites>  (822) 
1 - Z4590/B/203/1

>  <smiles>  (822) 
Cc1nn(Cc2ccccc2)c2nc(C3CC3)cc(C(=O)Nc3cc4c(cc3F)CNC4=O)c12

>  <HIPPO Pose ID>  (822) 
125769

>  <energy_score>  (822) 
-31.562182

>  <inchikey>  (822) 
SRSDLDDMUGVTKU-UHFFFAOYSA-N

>  <gnina_score_min>  (822) 
6.482

>  <gnina_score>  (822) 
6.637

>  <ref_mols>  (822) 
Z3559a

>  <HIPPO Compound ID>  (822) 
187909

>  <distance_score>  (822) 
0.333232

>  <rmsd(smina/fragmenstein)>  (822) 
1.084

>  <ref_pdb>  (822) 
Z3559a

>  <inspiration_score>  (822) 
None

$$$$
P125770
     RDKit          3D

 34 39  0  0  0  0  0  0  0  0999 V2000
   -3.8658    6.2121  -14.6368 C   0  0  0  0  0  0  0  0  0  0  0  0
   -4.6506    5.8463  -15.8425 C   0  0  0  0  0  0  0  0  0  0  0  0
   -4.1335    6.0853  -17.0590 N   0  0  0  0  0  0  0  0  0  0  0  0
   -5.0887    5.6381  -17.9139 N   0  0  0  0  0  0  0  0  0  0  0  0
   -5.1311    6.1245  -19.2859 C   0  0  0  0  0  0  0  0  0  0  0  0
   -4.2376    5.4179  -20.2657 C   0  0  0  0  0  0  0  0  0  0  0  0
   -2.8441    5.5347  -20.1889 C   0  0  0  0  0  0  0  0  0  0  0  0
   -2.0386    5.0266  -21.2079 C   0  0  0  0  0  0  0  0  0  0  0  0
   -2.6167    4.4007  -22.3109 C   0  0  0  0  0  0  0  0  0  0  0  0
   -3.9951    4.2303  -22.3723 C   0  0  0  0  0  0  0  0  0  0  0  0
   -4.8013    4.7347  -21.3545 C   0  0  0  0  0  0  0  0  0  0  0  0
   -6.1672    5.0922  -17.2681 C   0  0  0  0  0  0  0  0  0  0  0  0
   -7.2606    4.5873  -17.8550 N   0  0  0  0  0  0  0  0  0  0  0  0
   -8.2668    4.2403  -17.0255 C   0  0  0  0  0  0  0  0  0  0  0  0
   -9.5535    3.7560  -17.6545 C   0  0  0  0  0  0  0  0  0  0  0  0
   -9.5174    2.6002  -18.6244 C   0  0  0  0  0  0  0  0  0  0  0  0
   -9.8313    3.9789  -19.1211 C   0  0  0  0  0  0  0  0  0  0  0  0
   -8.1786    4.4012  -15.6402 C   0  0  0  0  0  0  0  0  0  0  0  0
   -7.0163    4.9379  -15.0654 C   0  0  0  0  0  0  0  0  0  0  0  0
   -6.9944    5.3336  -13.6383 C   0  0  0  0  0  0  0  0  0  0  0  0
   -6.6059    6.4026  -13.3756 O   0  0  0  0  0  0  0  0  0  0  0  0
   -7.5409    4.2138  -12.7244 N   0  0  0  0  0  0  0  0  0  0  0  0
   -7.8030    4.2099  -11.3558 C   0  0  0  0  0  0  0  0  0  0  0  0
   -7.5824    5.3648  -10.5798 C   0  0  0  0  0  0  0  0  0  0  0  0
   -7.8545    5.3737   -9.2099 C   0  0  0  0  0  0  0  0  0  0  0  0
   -8.3419    4.2095   -8.6546 C   0  0  0  0  0  0  0  0  0  0  0  0
   -8.5706    3.0585   -9.4056 C   0  0  0  0  0  0  0  0  0  0  0  0
   -8.3030    3.0423  -10.7655 C   0  0  0  0  0  0  0  0  0  0  0  0
   -9.1373    1.9911   -8.5304 C   0  0  0  0  0  0  0  0  0  0  0  0
   -9.2397    2.6618   -7.2449 N   0  0  0  0  0  0  0  0  0  0  0  0
   -9.9762    2.0886   -6.1496 C   0  0  0  0  0  0  0  0  0  0  0  0
   -8.7823    3.9623   -7.2766 C   0  0  0  0  0  0  0  0  0  0  0  0
   -8.7828    4.7978   -6.3910 O   0  0  0  0  0  0  0  0  0  0  0  0
   -5.9546    5.2838  -15.9155 C   0  0  0  0  0  0  0  0  0  0  0  0
  1  2  1  0
  2  3  2  0
  3  4  1  0
  4  5  1  0
  5  6  1  0
  6  7  2  0
  7  8  1  0
  8  9  2  0
  9 10  1  0
 10 11  2  0
  4 12  1  0
 12 13  2  0
 13 14  1  0
 14 15  1  0
 15 16  1  0
 16 17  1  0
 14 18  2  0
 18 19  1  0
 19 20  1  0
 20 21  2  0
 20 22  1  0
 22 23  1  0
 23 24  2  0
 24 25  1  0
 25 26  2  0
 26 27  1  0
 27 28  2  0
 27 29  1  0
 29 30  1  0
 30 31  1  0
 30 32  1  0
 32 33  2  0
 19 34  2  0
 34  2  1  0
 11  6  1  0
 34 12  1  0
 17 15  1  0
 28 23  1  0
 32 26  1  0
M  END
>  <name>  (823) 
P125770

>  <alias>  (823) 
None

>  <smina_score_min>  (823) 
-10.18

>  <exports>  (823) 
['/opt/xchem-fragalysis-2/maxwin/BulkDock/OUTPUTS/openbind_xx01zvns2b_c2_elabs_1LOUTNY.sdf', '/opt/xchem-fragalysis-2/maxwin/BulkDock/OUTPUTS/openbind_xx01zvns2b_c2_elabs_1LSYIIV.sdf']

>  <tags>  (823) 
syndirella_placed,openbind_xx01zvns2b_c2_elabs,openbind_xx01zvns2b_c2_elabs_scored_6.2plus,syndirella_product,openbind_xx01zvns2b_c2_elabs_scored,openbind_xx01zvns2b_c2_elabs_scored_top80percent,BulkDock Fragalysis export

>  <subsites>  (823) 
1 - Z4590/B/203/1

>  <smiles>  (823) 
Cc1nn(Cc2ccccc2)c2nc(C3CC3)cc(C(=O)Nc3ccc4c(c3)CN(C)C4=O)c12

>  <HIPPO Pose ID>  (823) 
125770

>  <energy_score>  (823) 
-41.338949

>  <inchikey>  (823) 
WTVNKDQKGVKRCA-UHFFFAOYSA-N

>  <gnina_score_min>  (823) 
6.582

>  <gnina_score>  (823) 
6.584

>  <ref_mols>  (823) 
Z3559a

>  <HIPPO Compound ID>  (823) 
187910

>  <distance_score>  (823) 
0.424456

>  <rmsd(smina/fragmenstein)>  (823) 
0.286

>  <ref_pdb>  (823) 
Z3559a

>  <inspiration_score>  (823) 
None

$$$$
P125771
     RDKit          3D

 34 39  0  0  0  0  0  0  0  0999 V2000
   -4.0981    6.2043  -14.2862 C   0  0  0  0  0  0  0  0  0  0  0  0
   -4.8165    5.8170  -15.5265 C   0  0  0  0  0  0  0  0  0  0  0  0
   -4.1985    5.9724  -16.7087 N   0  0  0  0  0  0  0  0  0  0  0  0
   -5.0982    5.5219  -17.6114 N   0  0  0  0  0  0  0  0  0  0  0  0
   -4.8965    5.5799  -19.0574 C   0  0  0  0  0  0  0  0  0  0  0  0
   -3.6041    6.2136  -19.5129 C   0  0  0  0  0  0  0  0  0  0  0  0
   -2.3870    5.5253  -19.4012 C   0  0  0  0  0  0  0  0  0  0  0  0
   -1.1996    6.1080  -19.8460 C   0  0  0  0  0  0  0  0  0  0  0  0
   -1.2129    7.3829  -20.4068 C   0  0  0  0  0  0  0  0  0  0  0  0
   -2.4140    8.0794  -20.5210 C   0  0  0  0  0  0  0  0  0  0  0  0
   -3.6035    7.4989  -20.0766 C   0  0  0  0  0  0  0  0  0  0  0  0
   -6.2502    5.0646  -17.0298 C   0  0  0  0  0  0  0  0  0  0  0  0
   -7.3016    4.5571  -17.6843 N   0  0  0  0  0  0  0  0  0  0  0  0
   -8.3702    4.2453  -16.9214 C   0  0  0  0  0  0  0  0  0  0  0  0
   -9.6177    3.7764  -17.6379 C   0  0  0  0  0  0  0  0  0  0  0  0
   -9.5351    2.6116  -18.5947 C   0  0  0  0  0  0  0  0  0  0  0  0
   -9.7836    3.9912  -19.1233 C   0  0  0  0  0  0  0  0  0  0  0  0
   -8.3730    4.4211  -15.5323 C   0  0  0  0  0  0  0  0  0  0  0  0
   -7.2476    4.9484  -14.8802 C   0  0  0  0  0  0  0  0  0  0  0  0
   -7.2851    5.3194  -13.4413 C   0  0  0  0  0  0  0  0  0  0  0  0
   -6.8176    6.3511  -13.1532 O   0  0  0  0  0  0  0  0  0  0  0  0
   -7.9482    4.2340  -12.5543 N   0  0  0  0  0  0  0  0  0  0  0  0
   -8.0829    4.1546  -11.1641 C   0  0  0  0  0  0  0  0  0  0  0  0
   -7.6066    5.2072  -10.3502 C   0  0  0  0  0  0  0  0  0  0  0  0
   -7.6662    5.1360   -8.9535 C   0  0  0  0  0  0  0  0  0  0  0  0
   -8.2273    4.0040   -8.4043 C   0  0  0  0  0  0  0  0  0  0  0  0
   -8.7381    2.9881   -9.1928 C   0  0  0  0  0  0  0  0  0  0  0  0
   -8.6699    3.0260  -10.5785 C   0  0  0  0  0  0  0  0  0  0  0  0
   -9.3150    1.9977   -8.2805 C   0  0  0  0  0  0  0  0  0  0  0  0
   -9.9568    1.0245   -8.6145 O   0  0  0  0  0  0  0  0  0  0  0  0
   -9.0557    2.4285   -7.0138 N   0  0  0  0  0  0  0  0  0  0  0  0
   -8.3974    3.6173   -7.0022 C   0  0  0  0  0  0  0  0  0  0  0  0
   -7.9936    4.2548   -6.0466 O   0  0  0  0  0  0  0  0  0  0  0  0
   -6.1287    5.2797  -15.6693 C   0  0  0  0  0  0  0  0  0  0  0  0
  1  2  1  0
  2  3  2  0
  3  4  1  0
  4  5  1  0
  5  6  1  0
  6  7  2  0
  7  8  1  0
  8  9  2  0
  9 10  1  0
 10 11  2  0
  4 12  1  0
 12 13  2  0
 13 14  1  0
 14 15  1  0
 15 16  1  0
 16 17  1  0
 14 18  2  0
 18 19  1  0
 19 20  1  0
 20 21  2  0
 20 22  1  0
 22 23  1  0
 23 24  2  0
 24 25  1  0
 25 26  2  0
 26 27  1  0
 27 28  2  0
 27 29  1  0
 29 30  2  0
 29 31  1  0
 31 32  1  0
 32 33  2  0
 19 34  2  0
 34  2  1  0
 11  6  1  0
 34 12  1  0
 17 15  1  0
 28 23  1  0
 32 26  1  0
M  END
>  <name>  (824) 
P125771

>  <alias>  (824) 
None

>  <smina_score_min>  (824) 
-9.559

>  <exports>  (824) 
['/opt/xchem-fragalysis-2/maxwin/BulkDock/OUTPUTS/openbind_xx01zvns2b_c2_elabs_1LOUTNY.sdf', '/opt/xchem-fragalysis-2/maxwin/BulkDock/OUTPUTS/openbind_xx01zvns2b_c2_elabs_1LSYIIV.sdf']

>  <tags>  (824) 
syndirella_placed,openbind_xx01zvns2b_c2_elabs,openbind_xx01zvns2b_c2_elabs_scored_6.2plus,syndirella_product,openbind_xx01zvns2b_c2_elabs_scored,openbind_xx01zvns2b_c2_elabs_scored_top80percent,BulkDock Fragalysis export

>  <subsites>  (824) 
1 - Z4590/B/203/1

>  <smiles>  (824) 
Cc1nn(Cc2ccccc2)c2nc(C3CC3)cc(C(=O)Nc3ccc4c(c3)C(=O)NC4=O)c12

>  <HIPPO Pose ID>  (824) 
125771

>  <energy_score>  (824) 
-36.902524

>  <inchikey>  (824) 
SCAYCTGHUNFFSY-UHFFFAOYSA-N

>  <gnina_score_min>  (824) 
6.423

>  <gnina_score>  (824) 
6.531

>  <ref_mols>  (824) 
Z3559a

>  <HIPPO Compound ID>  (824) 
187911

>  <distance_score>  (824) 
0.319677

>  <rmsd(smina/fragmenstein)>  (824) 
1.253

>  <ref_pdb>  (824) 
Z3559a

>  <inspiration_score>  (824) 
None

$$$$
P125772
     RDKit          3D

 34 39  0  0  0  0  0  0  0  0999 V2000
   -5.1493    4.2823  -22.0053 C   0  0  0  0  0  0  0  0  0  0  0  0
   -4.3745    4.9371  -20.9059 C   0  0  0  0  0  0  0  0  0  0  0  0
   -3.1066    5.4254  -21.1460 C   0  0  0  0  0  0  0  0  0  0  0  0
   -2.4465    5.9784  -20.0707 C   0  0  0  0  0  0  0  0  0  0  0  0
   -1.0596    6.5232  -20.2273 C   0  0  0  0  0  0  0  0  0  0  0  0
   -3.0087    6.0591  -18.8509 N   0  0  0  0  0  0  0  0  0  0  0  0
   -4.2559    5.5514  -18.6890 C   0  0  0  0  0  0  0  0  0  0  0  0
   -4.8179    5.6024  -17.3660 N   0  0  0  0  0  0  0  0  0  0  0  0
   -4.1079    6.1684  -16.3373 N   0  0  0  0  0  0  0  0  0  0  0  0
   -4.8933    6.0497  -15.2648 C   0  0  0  0  0  0  0  0  0  0  0  0
   -4.3926    6.5437  -13.9560 C   0  0  0  0  0  0  0  0  0  0  0  0
   -6.1326    5.4353  -15.5738 C   0  0  0  0  0  0  0  0  0  0  0  0
   -7.3216    5.0806  -14.9086 C   0  0  0  0  0  0  0  0  0  0  0  0
   -7.5272    5.5000  -13.5024 C   0  0  0  0  0  0  0  0  0  0  0  0
   -7.2545    6.6032  -13.2319 O   0  0  0  0  0  0  0  0  0  0  0  0
   -8.0088    4.3361  -12.6027 N   0  0  0  0  0  0  0  0  0  0  0  0
   -8.1590    4.2639  -11.2152 C   0  0  0  0  0  0  0  0  0  0  0  0
   -7.7917    5.3591  -10.4060 C   0  0  0  0  0  0  0  0  0  0  0  0
   -7.8896    5.3044   -9.0099 C   0  0  0  0  0  0  0  0  0  0  0  0
   -8.3895    4.1516   -8.4400 C   0  0  0  0  0  0  0  0  0  0  0  0
   -8.7877    3.0868   -9.2488 C   0  0  0  0  0  0  0  0  0  0  0  0
   -8.6615    3.0999  -10.6295 C   0  0  0  0  0  0  0  0  0  0  0  0
   -9.3727    2.0675   -8.3677 C   0  0  0  0  0  0  0  0  0  0  0  0
   -9.9156    1.0405   -8.7132 O   0  0  0  0  0  0  0  0  0  0  0  0
   -9.2519    2.5319   -7.0751 N   0  0  0  0  0  0  0  0  0  0  0  0
   -8.6198    3.8189   -7.0050 C   0  0  0  0  0  0  0  0  0  0  0  0
   -8.3117    4.4095  -15.6288 C   0  0  0  0  0  0  0  0  0  0  0  0
   -8.1029    4.1122  -16.9759 C   0  0  0  0  0  0  0  0  0  0  0  0
   -9.0974    3.2599  -17.7206 C   0  0  0  0  0  0  0  0  0  0  0  0
   -9.0811    3.2457  -19.2262 C   0  0  0  0  0  0  0  0  0  0  0  0
  -10.2469    3.8440  -18.5015 C   0  0  0  0  0  0  0  0  0  0  0  0
   -6.9928    4.4953  -17.6429 N   0  0  0  0  0  0  0  0  0  0  0  0
   -6.0492    5.1323  -16.9264 C   0  0  0  0  0  0  0  0  0  0  0  0
   -4.9595    4.9962  -19.6930 N   0  0  0  0  0  0  0  0  0  0  0  0
  1  2  1  0
  2  3  2  0
  3  4  1  0
  4  5  1  0
  4  6  2  0
  6  7  1  0
  7  8  1  0
  8  9  1  0
  9 10  2  0
 10 11  1  0
 10 12  1  0
 12 13  2  0
 13 14  1  0
 14 15  2  0
 14 16  1  0
 16 17  1  0
 17 18  2  0
 18 19  1  0
 19 20  2  0
 20 21  1  0
 21 22  2  0
 21 23  1  0
 23 24  2  0
 23 25  1  0
 25 26  1  0
 13 27  1  0
 27 28  2  0
 28 29  1  0
 29 30  1  0
 30 31  1  0
 28 32  1  0
 32 33  2  0
  7 34  2  0
 34  2  1  0
 33  8  1  0
 33 12  1  0
 22 17  1  0
 31 29  1  0
 26 20  1  0
M  END
>  <name>  (825) 
P125772

>  <alias>  (825) 
None

>  <smina_score_min>  (825) 
-10.089

>  <exports>  (825) 
['/opt/xchem-fragalysis-2/maxwin/BulkDock/OUTPUTS/openbind_xx01zvns2b_c2_elabs_1LOUTNY.sdf', '/opt/xchem-fragalysis-2/maxwin/BulkDock/OUTPUTS/openbind_xx01zvns2b_c2_elabs_1LSYIIV.sdf']

>  <tags>  (825) 
syndirella_placed,openbind_xx01zvns2b_c2_elabs,openbind_xx01zvns2b_c2_elabs_scored_6.2plus,syndirella_product,openbind_xx01zvns2b_c2_elabs_scored,openbind_xx01zvns2b_c2_elabs_scored_top80percent,BulkDock Fragalysis export

>  <subsites>  (825) 
1 - Z4590/B/203/1

>  <smiles>  (825) 
Cc1cc(C)nc(-n2nc(C)c3c(C(=O)Nc4ccc5c(c4)C(=O)NC5)cc(C4CC4)nc32)n1

>  <HIPPO Pose ID>  (825) 
125772

>  <energy_score>  (825) 
-39.105766

>  <inchikey>  (825) 
PUOXJLPWBJBIPC-UHFFFAOYSA-N

>  <gnina_score_min>  (825) 
6.59

>  <gnina_score>  (825) 
6.705

>  <ref_mols>  (825) 
Z3559a

>  <HIPPO Compound ID>  (825) 
187913

>  <distance_score>  (825) 
0.52969

>  <rmsd(smina/fragmenstein)>  (825) 
0.873

>  <ref_pdb>  (825) 
Z3559a

>  <inspiration_score>  (825) 
None

$$$$
P125774
     RDKit          3D

 34 38  0  0  0  0  0  0  0  0999 V2000
  -10.0693    3.9058   -4.4957 C   0  0  0  0  0  0  0  0  0  0  0  0
  -10.6290    3.0626   -5.4889 O   0  0  0  0  0  0  0  0  0  0  0  0
   -9.6533    2.2601   -6.1590 C   0  0  0  0  0  0  0  0  0  0  0  0
   -9.2197    2.9049   -7.3576 N   0  0  0  0  0  0  0  0  0  0  0  0
   -8.3557    3.9575   -7.3626 C   0  0  0  0  0  0  0  0  0  0  0  0
   -7.8247    4.5585   -6.4442 O   0  0  0  0  0  0  0  0  0  0  0  0
   -8.0820    4.2437   -8.7606 C   0  0  0  0  0  0  0  0  0  0  0  0
   -7.3816    5.2858   -9.3200 C   0  0  0  0  0  0  0  0  0  0  0  0
   -7.2466    5.2755  -10.7072 C   0  0  0  0  0  0  0  0  0  0  0  0
   -7.7872    4.2311  -11.4906 C   0  0  0  0  0  0  0  0  0  0  0  0
   -7.5735    4.2251  -12.8654 N   0  0  0  0  0  0  0  0  0  0  0  0
   -6.9576    5.3003  -13.7907 C   0  0  0  0  0  0  0  0  0  0  0  0
   -6.4634    6.3267  -13.5340 O   0  0  0  0  0  0  0  0  0  0  0  0
   -7.0190    4.9270  -15.2218 C   0  0  0  0  0  0  0  0  0  0  0  0
   -8.1874    4.4074  -15.7920 C   0  0  0  0  0  0  0  0  0  0  0  0
   -8.2851    4.2592  -17.1785 C   0  0  0  0  0  0  0  0  0  0  0  0
   -9.5785    3.7661  -17.7798 C   0  0  0  0  0  0  0  0  0  0  0  0
   -9.5581    2.5633  -18.6874 C   0  0  0  0  0  0  0  0  0  0  0  0
   -9.8599    3.9203  -19.2506 C   0  0  0  0  0  0  0  0  0  0  0  0
   -7.2893    4.6218  -18.0230 N   0  0  0  0  0  0  0  0  0  0  0  0
   -6.1916    5.1122  -17.4350 C   0  0  0  0  0  0  0  0  0  0  0  0
   -5.9600    5.2692  -16.0809 C   0  0  0  0  0  0  0  0  0  0  0  0
   -4.6375    5.7938  -16.0145 C   0  0  0  0  0  0  0  0  0  0  0  0
   -3.8171    6.1076  -14.8170 C   0  0  0  0  0  0  0  0  0  0  0  0
   -4.1262    6.0267  -17.2352 N   0  0  0  0  0  0  0  0  0  0  0  0
   -5.1126    5.6508  -18.0779 N   0  0  0  0  0  0  0  0  0  0  0  0
   -5.1009    6.1059  -19.4497 C   0  0  0  0  0  0  0  0  0  0  0  0
   -5.0202    5.0062  -20.4722 C   0  0  0  0  0  0  0  0  0  0  0  0
   -5.1789    5.5419  -21.7157 F   0  0  0  0  0  0  0  0  0  0  0  0
   -3.7629    4.4851  -20.4808 F   0  0  0  0  0  0  0  0  0  0  0  0
   -8.5079    3.1926  -10.8953 C   0  0  0  0  0  0  0  0  0  0  0  0
   -8.6495    3.2398   -9.5211 C   0  0  0  0  0  0  0  0  0  0  0  0
   -9.3586    2.3558   -8.6008 C   0  0  0  0  0  0  0  0  0  0  0  0
   -9.9223    1.3403   -8.9514 O   0  0  0  0  0  0  0  0  0  0  0  0
  1  2  1  0
  2  3  1  0
  3  4  1  0
  4  5  1  0
  5  6  2  0
  5  7  1  0
  7  8  2  0
  8  9  1  0
  9 10  2  0
 10 11  1  0
 11 12  1  0
 12 13  2  0
 12 14  1  0
 14 15  2  0
 15 16  1  0
 16 17  1  0
 17 18  1  0
 18 19  1  0
 16 20  2  0
 20 21  1  0
 21 22  2  0
 22 23  1  0
 23 24  1  0
 23 25  2  0
 25 26  1  0
 26 27  1  0
 27 28  1  0
 28 29  1  0
 28 30  1  0
 10 31  1  0
 31 32  2  0
 32 33  1  0
 33 34  2  0
 33  4  1  0
 32  7  1  0
 22 14  1  0
 19 17  1  0
 26 21  1  0
M  END
>  <name>  (826) 
P125774

>  <alias>  (826) 
None

>  <smina_score_min>  (826) 
-8.61

>  <exports>  (826) 
['/opt/xchem-fragalysis-2/maxwin/BulkDock/OUTPUTS/openbind_xx01zvns2b_c2_elabs_1LOUTNY.sdf', '/opt/xchem-fragalysis-2/maxwin/BulkDock/OUTPUTS/openbind_xx01zvns2b_c2_elabs_1LSYIIV.sdf']

>  <tags>  (826) 
syndirella_placed,openbind_xx01zvns2b_c2_elabs,openbind_xx01zvns2b_c2_elabs_scored_6.2plus,syndirella_product,openbind_xx01zvns2b_c2_elabs_scored,openbind_xx01zvns2b_c2_elabs_scored_top80percent,BulkDock Fragalysis export

>  <subsites>  (826) 
1 - Z4590/B/203/1

>  <smiles>  (826) 
COCN1C(=O)c2ccc(NC(=O)c3cc(C4CC4)nc4c3c(C)nn4CC(F)F)cc2C1=O

>  <HIPPO Pose ID>  (826) 
125774

>  <energy_score>  (826) 
-23.551277

>  <inchikey>  (826) 
LQNVOZFCQVILFC-UHFFFAOYSA-N

>  <gnina_score_min>  (826) 
6.299

>  <gnina_score>  (826) 
6.359

>  <ref_mols>  (826) 
Z3559a

>  <HIPPO Compound ID>  (826) 
187915

>  <distance_score>  (826) 
0.539313

>  <rmsd(smina/fragmenstein)>  (826) 
0.342

>  <ref_pdb>  (826) 
Z3559a

>  <inspiration_score>  (826) 
None

$$$$
P125775
     RDKit          3D

 34 38  0  0  0  0  0  0  0  0999 V2000
   -5.2239    2.4450  -10.5511 C   0  0  0  0  0  0  0  0  0  0  0  0
   -6.1380    2.4753   -9.4700 O   0  0  0  0  0  0  0  0  0  0  0  0
   -7.0514    1.3716   -9.4871 C   0  0  0  0  0  0  0  0  0  0  0  0
   -8.1409    1.3106   -8.3380 C   0  0  0  0  0  0  0  0  0  0  0  0
   -9.0017    2.4556   -8.2259 N   0  0  0  0  0  0  0  0  0  0  0  0
   -9.7521    2.5740   -9.4233 C   0  0  0  0  0  0  0  0  0  0  0  0
   -9.0158    3.6423  -10.1147 C   0  0  0  0  0  0  0  0  0  0  0  0
   -8.7832    3.7582  -11.4563 C   0  0  0  0  0  0  0  0  0  0  0  0
   -7.9776    4.7967  -11.8863 C   0  0  0  0  0  0  0  0  0  0  0  0
   -7.6830    4.7552  -13.2319 N   0  0  0  0  0  0  0  0  0  0  0  0
   -7.0052    5.7887  -14.1343 C   0  0  0  0  0  0  0  0  0  0  0  0
   -6.5166    6.8111  -13.8748 O   0  0  0  0  0  0  0  0  0  0  0  0
   -6.9709    5.2664  -15.5227 C   0  0  0  0  0  0  0  0  0  0  0  0
   -8.0732    4.5904  -16.0890 C   0  0  0  0  0  0  0  0  0  0  0  0
   -8.0234    4.1616  -17.4129 C   0  0  0  0  0  0  0  0  0  0  0  0
   -9.1659    3.4194  -18.0625 C   0  0  0  0  0  0  0  0  0  0  0  0
   -9.6558    4.0075  -19.3669 C   0  0  0  0  0  0  0  0  0  0  0  0
  -10.5642    3.9644  -18.1899 C   0  0  0  0  0  0  0  0  0  0  0  0
   -6.9578    4.4043  -18.2035 N   0  0  0  0  0  0  0  0  0  0  0  0
   -5.9468    5.0718  -17.6342 C   0  0  0  0  0  0  0  0  0  0  0  0
   -5.8491    5.5009  -16.3257 C   0  0  0  0  0  0  0  0  0  0  0  0
   -4.5525    6.0819  -16.2428 C   0  0  0  0  0  0  0  0  0  0  0  0
   -3.8538    6.6588  -15.0659 C   0  0  0  0  0  0  0  0  0  0  0  0
   -3.9343    6.0935  -17.4356 N   0  0  0  0  0  0  0  0  0  0  0  0
   -4.8156    5.5009  -18.2643 N   0  0  0  0  0  0  0  0  0  0  0  0
   -4.5982    5.4778  -19.6936 C   0  0  0  0  0  0  0  0  0  0  0  0
   -3.1628    5.2065  -20.0856 C   0  0  0  0  0  0  0  0  0  0  0  0
   -3.1509    4.2818  -21.0937 F   0  0  0  0  0  0  0  0  0  0  0  0
   -2.6129    6.3316  -20.6174 F   0  0  0  0  0  0  0  0  0  0  0  0
   -7.4453    5.7278  -10.9787 C   0  0  0  0  0  0  0  0  0  0  0  0
   -7.6102    5.5348   -9.5966 C   0  0  0  0  0  0  0  0  0  0  0  0
   -8.3680    4.4524   -9.1984 C   0  0  0  0  0  0  0  0  0  0  0  0
   -8.3977    3.7022   -7.9272 C   0  0  0  0  0  0  0  0  0  0  0  0
   -7.9132    4.0989   -6.8826 O   0  0  0  0  0  0  0  0  0  0  0  0
  1  2  1  0
  2  3  1  0
  3  4  1  0
  4  5  1  0
  5  6  1  0
  6  7  1  0
  7  8  2  0
  8  9  1  0
  9 10  1  0
 10 11  1  0
 11 12  2  0
 11 13  1  0
 13 14  2  0
 14 15  1  0
 15 16  1  0
 16 17  1  0
 17 18  1  0
 15 19  2  0
 19 20  1  0
 20 21  2  0
 21 22  1  0
 22 23  1  0
 22 24  2  0
 24 25  1  0
 25 26  1  0
 26 27  1  0
 27 28  1  0
 27 29  1  0
  9 30  2  0
 30 31  1  0
 31 32  2  0
 32 33  1  0
 33 34  2  0
 33  5  1  0
 32  7  1  0
 21 13  1  0
 18 16  1  0
 25 20  1  0
M  END
>  <name>  (827) 
P125775

>  <alias>  (827) 
None

>  <smina_score_min>  (827) 
-7.05

>  <exports>  (827) 
['/opt/xchem-fragalysis-2/maxwin/BulkDock/OUTPUTS/openbind_xx01zvns2b_c2_elabs_1LOUTNY.sdf', '/opt/xchem-fragalysis-2/maxwin/BulkDock/OUTPUTS/openbind_xx01zvns2b_c2_elabs_1LSYIIV.sdf']

>  <tags>  (827) 
syndirella_placed,openbind_xx01zvns2b_c2_elabs,openbind_xx01zvns2b_c2_elabs_scored_6.2plus,syndirella_product,openbind_xx01zvns2b_c2_elabs_scored,openbind_xx01zvns2b_c2_elabs_scored_top80percent,BulkDock Fragalysis export

>  <subsites>  (827) 
1 - Z4590/B/203/1

>  <smiles>  (827) 
COCCN1Cc2cc(NC(=O)c3cc(C4CC4)nc4c3c(C)nn4CC(F)F)ccc2C1=O

>  <HIPPO Pose ID>  (827) 
125775

>  <energy_score>  (827) 
-7.880682

>  <inchikey>  (827) 
SNCUKTUVDPZJRH-UHFFFAOYSA-N

>  <gnina_score_min>  (827) 
6.426

>  <gnina_score>  (827) 
6.435

>  <ref_mols>  (827) 
Z3559a

>  <HIPPO Compound ID>  (827) 
187917

>  <distance_score>  (827) 
0.938044

>  <rmsd(smina/fragmenstein)>  (827) 
1.701

>  <ref_pdb>  (827) 
Z3559a

>  <inspiration_score>  (827) 
None

$$$$
P125776
     RDKit          3D

 34 38  0  0  0  0  0  0  0  0999 V2000
   -3.9927    6.4135  -14.7724 C   0  0  0  0  0  0  0  0  0  0  0  0
   -4.7129    5.9096  -15.9689 C   0  0  0  0  0  0  0  0  0  0  0  0
   -4.1169    5.9686  -17.1715 N   0  0  0  0  0  0  0  0  0  0  0  0
   -5.0313    5.4426  -18.0136 N   0  0  0  0  0  0  0  0  0  0  0  0
   -4.8245    5.4227  -19.4450 C   0  0  0  0  0  0  0  0  0  0  0  0
   -3.3705    5.4432  -19.8537 C   0  0  0  0  0  0  0  0  0  0  0  0
   -3.2453    4.8178  -21.0601 F   0  0  0  0  0  0  0  0  0  0  0  0
   -2.9634    6.7247  -20.0610 F   0  0  0  0  0  0  0  0  0  0  0  0
   -6.1713    5.0296  -17.3843 C   0  0  0  0  0  0  0  0  0  0  0  0
   -7.2408    4.4743  -17.9699 N   0  0  0  0  0  0  0  0  0  0  0  0
   -8.2916    4.2273  -17.1549 C   0  0  0  0  0  0  0  0  0  0  0  0
   -9.5737    3.7321  -17.7784 C   0  0  0  0  0  0  0  0  0  0  0  0
   -9.8175    3.8871  -19.2567 C   0  0  0  0  0  0  0  0  0  0  0  0
   -9.5482    2.5276  -18.6825 C   0  0  0  0  0  0  0  0  0  0  0  0
   -8.2557    4.5004  -15.7877 C   0  0  0  0  0  0  0  0  0  0  0  0
   -7.1146    5.0818  -15.2241 C   0  0  0  0  0  0  0  0  0  0  0  0
   -7.1424    5.5732  -13.8376 C   0  0  0  0  0  0  0  0  0  0  0  0
   -6.7938    6.6673  -13.6325 O   0  0  0  0  0  0  0  0  0  0  0  0
   -7.6545    4.4885  -12.8680 N   0  0  0  0  0  0  0  0  0  0  0  0
   -7.9246    4.5498  -11.5079 C   0  0  0  0  0  0  0  0  0  0  0  0
   -7.7538    5.7582  -10.8077 C   0  0  0  0  0  0  0  0  0  0  0  0
   -7.9665    5.8300   -9.4335 C   0  0  0  0  0  0  0  0  0  0  0  0
   -8.3373    4.6733   -8.7856 C   0  0  0  0  0  0  0  0  0  0  0  0
   -8.5315    3.4722   -9.4822 C   0  0  0  0  0  0  0  0  0  0  0  0
   -8.3414    3.3926  -10.8482 C   0  0  0  0  0  0  0  0  0  0  0  0
   -8.9320    2.4070   -8.5118 C   0  0  0  0  0  0  0  0  0  0  0  0
   -8.5500    3.0092   -7.2311 N   0  0  0  0  0  0  0  0  0  0  0  0
   -9.0746    2.3922   -6.0327 C   0  0  0  0  0  0  0  0  0  0  0  0
  -10.5773    2.2898   -5.8071 C   0  0  0  0  0  0  0  0  0  0  0  0
  -11.2149    3.4280   -6.1640 F   0  0  0  0  0  0  0  0  0  0  0  0
  -11.0851    1.2629   -6.5087 F   0  0  0  0  0  0  0  0  0  0  0  0
  -10.8780    2.0887   -4.5110 F   0  0  0  0  0  0  0  0  0  0  0  0
   -8.5755    4.4537   -7.3293 C   0  0  0  0  0  0  0  0  0  0  0  0
   -6.0172    5.3507  -16.0501 C   0  0  0  0  0  0  0  0  0  0  0  0
  1  2  1  0
  2  3  2  0
  3  4  1  0
  4  5  1  0
  5  6  1  0
  6  7  1  0
  6  8  1  0
  4  9  1  0
  9 10  2  0
 10 11  1  0
 11 12  1  0
 12 13  1  0
 13 14  1  0
 11 15  2  0
 15 16  1  0
 16 17  1  0
 17 18  2  0
 17 19  1  0
 19 20  1  0
 20 21  2  0
 21 22  1  0
 22 23  2  0
 23 24  1  0
 24 25  2  0
 24 26  1  0
 26 27  1  0
 27 28  1  0
 28 29  1  0
 29 30  1  0
 29 31  1  0
 29 32  1  0
 27 33  1  0
 16 34  2  0
 34  2  1  0
 34  9  1  0
 14 12  1  0
 25 20  1  0
 33 23  1  0
M  END
>  <name>  (828) 
P125776

>  <alias>  (828) 
None

>  <smina_score_min>  (828) 
-9.032

>  <exports>  (828) 
['/opt/xchem-fragalysis-2/maxwin/BulkDock/OUTPUTS/openbind_xx01zvns2b_c2_elabs_1LOUTNY.sdf', '/opt/xchem-fragalysis-2/maxwin/BulkDock/OUTPUTS/openbind_xx01zvns2b_c2_elabs_1LSYIIV.sdf']

>  <tags>  (828) 
syndirella_placed,openbind_xx01zvns2b_c2_elabs,openbind_xx01zvns2b_c2_elabs_scored_6.2plus,syndirella_product,openbind_xx01zvns2b_c2_elabs_scored,openbind_xx01zvns2b_c2_elabs_scored_top80percent,BulkDock Fragalysis export

>  <subsites>  (828) 
1 - Z4590/B/203/1

>  <smiles>  (828) 
Cc1nn(CC(F)F)c2nc(C3CC3)cc(C(=O)Nc3ccc4c(c3)CN(CC(F)(F)F)C4)c12

>  <HIPPO Pose ID>  (828) 
125776

>  <energy_score>  (828) 
-46.237797

>  <inchikey>  (828) 
XRHVIIDXFASZTQ-UHFFFAOYSA-N

>  <gnina_score_min>  (828) 
6.49

>  <gnina_score>  (828) 
6.419

>  <ref_mols>  (828) 
Z3559a

>  <HIPPO Compound ID>  (828) 
187918

>  <distance_score>  (828) 
0.575111

>  <rmsd(smina/fragmenstein)>  (828) 
0.861

>  <ref_pdb>  (828) 
Z3559a

>  <inspiration_score>  (828) 
None

$$$$
P125777
     RDKit          3D

 34 38  0  0  0  0  0  0  0  0999 V2000
   -8.6215    4.0970   -3.0167 C   0  0  0  0  0  0  0  0  0  0  0  0
   -8.8684    4.3214   -4.3948 O   0  0  0  0  0  0  0  0  0  0  0  0
  -10.2260    4.0583   -4.7505 C   0  0  0  0  0  0  0  0  0  0  0  0
  -10.4670    2.6550   -5.2935 C   0  0  0  0  0  0  0  0  0  0  0  0
   -9.4744    2.1274   -6.3284 C   0  0  0  0  0  0  0  0  0  0  0  0
   -9.4801    2.9145   -7.5465 N   0  0  0  0  0  0  0  0  0  0  0  0
   -8.5748    4.0775   -7.4955 C   0  0  0  0  0  0  0  0  0  0  0  0
   -8.2416    4.3194   -8.9271 C   0  0  0  0  0  0  0  0  0  0  0  0
   -7.7481    5.4601   -9.5208 C   0  0  0  0  0  0  0  0  0  0  0  0
   -7.5747    5.4411  -10.9015 C   0  0  0  0  0  0  0  0  0  0  0  0
   -7.8805    4.2918  -11.6533 C   0  0  0  0  0  0  0  0  0  0  0  0
   -7.7170    4.2956  -13.0320 N   0  0  0  0  0  0  0  0  0  0  0  0
   -7.2470    5.4150  -13.9813 C   0  0  0  0  0  0  0  0  0  0  0  0
   -6.9961    6.5338  -13.7657 O   0  0  0  0  0  0  0  0  0  0  0  0
   -7.1508    4.9494  -15.3756 C   0  0  0  0  0  0  0  0  0  0  0  0
   -8.2223    4.2975  -15.9998 C   0  0  0  0  0  0  0  0  0  0  0  0
   -8.1693    4.0571  -17.3721 C   0  0  0  0  0  0  0  0  0  0  0  0
   -9.2993    3.3662  -18.0895 C   0  0  0  0  0  0  0  0  0  0  0  0
   -9.7171    3.9824  -19.4007 C   0  0  0  0  0  0  0  0  0  0  0  0
  -10.6658    3.9854  -18.2547 C   0  0  0  0  0  0  0  0  0  0  0  0
   -7.1338    4.4608  -18.1493 N   0  0  0  0  0  0  0  0  0  0  0  0
   -6.1403    5.0822  -17.5056 C   0  0  0  0  0  0  0  0  0  0  0  0
   -6.0453    5.3284  -16.1510 C   0  0  0  0  0  0  0  0  0  0  0  0
   -4.7855    5.9691  -15.9980 C   0  0  0  0  0  0  0  0  0  0  0  0
   -4.1220    6.4232  -14.7499 C   0  0  0  0  0  0  0  0  0  0  0  0
   -4.1866    6.1862  -17.1813 N   0  0  0  0  0  0  0  0  0  0  0  0
   -5.0625    5.6903  -18.0850 N   0  0  0  0  0  0  0  0  0  0  0  0
   -4.9939    6.1210  -19.4631 C   0  0  0  0  0  0  0  0  0  0  0  0
   -4.8798    5.0108  -20.4717 C   0  0  0  0  0  0  0  0  0  0  0  0
   -5.0125    5.5372  -21.7226 F   0  0  0  0  0  0  0  0  0  0  0  0
   -3.6185    4.4985  -20.4393 F   0  0  0  0  0  0  0  0  0  0  0  0
   -8.3590    3.1367  -11.0324 C   0  0  0  0  0  0  0  0  0  0  0  0
   -8.5424    3.1740   -9.6649 C   0  0  0  0  0  0  0  0  0  0  0  0
   -9.0774    2.1311   -8.7357 C   0  0  0  0  0  0  0  0  0  0  0  0
  1  2  1  0
  2  3  1  0
  3  4  1  0
  4  5  1  0
  5  6  1  0
  6  7  1  0
  7  8  1  0
  8  9  2  0
  9 10  1  0
 10 11  2  0
 11 12  1  0
 12 13  1  0
 13 14  2  0
 13 15  1  0
 15 16  2  0
 16 17  1  0
 17 18  1  0
 18 19  1  0
 19 20  1  0
 17 21  2  0
 21 22  1  0
 22 23  2  0
 23 24  1  0
 24 25  1  0
 24 26  2  0
 26 27  1  0
 27 28  1  0
 28 29  1  0
 29 30  1  0
 29 31  1  0
 11 32  1  0
 32 33  2  0
 33 34  1  0
 34  6  1  0
 33  8  1  0
 23 15  1  0
 20 18  1  0
 27 22  1  0
M  END
>  <name>  (829) 
P125777

>  <alias>  (829) 
None

>  <smina_score_min>  (829) 
-8.638

>  <exports>  (829) 
['/opt/xchem-fragalysis-2/maxwin/BulkDock/OUTPUTS/openbind_xx01zvns2b_c2_elabs_1LOUTNY.sdf', '/opt/xchem-fragalysis-2/maxwin/BulkDock/OUTPUTS/openbind_xx01zvns2b_c2_elabs_1LSYIIV.sdf']

>  <tags>  (829) 
syndirella_placed,openbind_xx01zvns2b_c2_elabs,openbind_xx01zvns2b_c2_elabs_scored_6.2plus,syndirella_product,openbind_xx01zvns2b_c2_elabs_scored,openbind_xx01zvns2b_c2_elabs_scored_top80percent,BulkDock Fragalysis export

>  <subsites>  (829) 
1 - Z4590/B/203/1

>  <smiles>  (829) 
COCCCN1Cc2ccc(NC(=O)c3cc(C4CC4)nc4c3c(C)nn4CC(F)F)cc2C1

>  <HIPPO Pose ID>  (829) 
125777

>  <energy_score>  (829) 
-62.834531

>  <inchikey>  (829) 
OWTBOMCXNDHTIY-UHFFFAOYSA-N

>  <gnina_score_min>  (829) 
6.758

>  <gnina_score>  (829) 
6.651

>  <ref_mols>  (829) 
Z3559a

>  <HIPPO Compound ID>  (829) 
187919

>  <distance_score>  (829) 
0.710433

>  <rmsd(smina/fragmenstein)>  (829) 
0.906

>  <ref_pdb>  (829) 
Z3559a

>  <inspiration_score>  (829) 
None

$$$$
P125781
     RDKit          3D

 34 38  0  0  0  0  0  0  0  0999 V2000
  -11.5402    2.3214   -5.2262 C   0  0  0  0  0  0  0  0  0  0  0  0
  -10.8237    3.6105   -4.8814 C   0  0  0  0  0  0  0  0  0  0  0  0
   -9.3325    3.4201   -4.7083 C   0  0  0  0  0  0  0  0  0  0  0  0
   -8.7013    2.6342   -5.8502 C   0  0  0  0  0  0  0  0  0  0  0  0
   -8.7907    3.2880   -7.1244 N   0  0  0  0  0  0  0  0  0  0  0  0
   -8.9132    2.5160   -8.3632 C   0  0  0  0  0  0  0  0  0  0  0  0
   -8.5024    3.5145   -9.3936 C   0  0  0  0  0  0  0  0  0  0  0  0
   -8.4291    3.4181  -10.7710 C   0  0  0  0  0  0  0  0  0  0  0  0
   -7.9926    4.5500  -11.4710 C   0  0  0  0  0  0  0  0  0  0  0  0
   -7.8307    4.5028  -12.8470 N   0  0  0  0  0  0  0  0  0  0  0  0
   -7.2807    5.5571  -13.8267 C   0  0  0  0  0  0  0  0  0  0  0  0
   -6.9484    6.6599  -13.6426 O   0  0  0  0  0  0  0  0  0  0  0  0
   -7.1628    5.0370  -15.1911 C   0  0  0  0  0  0  0  0  0  0  0  0
   -8.2668    4.4788  -15.8283 C   0  0  0  0  0  0  0  0  0  0  0  0
   -8.2172    4.2539  -17.2008 C   0  0  0  0  0  0  0  0  0  0  0  0
   -9.4779    3.7828  -17.8931 C   0  0  0  0  0  0  0  0  0  0  0  0
   -9.4744    2.5059  -18.6892 C   0  0  0  0  0  0  0  0  0  0  0  0
   -9.5920    3.8247  -19.3926 C   0  0  0  0  0  0  0  0  0  0  0  0
   -7.1211    4.5427  -17.9492 N   0  0  0  0  0  0  0  0  0  0  0  0
   -6.0683    5.0623  -17.2888 C   0  0  0  0  0  0  0  0  0  0  0  0
   -6.0035    5.3038  -15.9276 C   0  0  0  0  0  0  0  0  0  0  0  0
   -4.7024    5.8166  -15.7017 C   0  0  0  0  0  0  0  0  0  0  0  0
   -4.0622    6.2110  -14.4216 C   0  0  0  0  0  0  0  0  0  0  0  0
   -4.0151    5.9376  -16.8410 N   0  0  0  0  0  0  0  0  0  0  0  0
   -4.8805    5.5346  -17.8074 N   0  0  0  0  0  0  0  0  0  0  0  0
   -4.5265    5.8394  -19.2046 C   0  0  0  0  0  0  0  0  0  0  0  0
   -3.0350    5.5322  -19.4691 C   0  0  0  0  0  0  0  0  0  0  0  0
   -4.7668    7.3455  -19.4471 C   0  0  0  0  0  0  0  0  0  0  0  0
   -5.3573    5.0648  -20.2316 C   0  0  0  0  0  0  0  0  0  0  0  0
   -7.6673    5.7480  -10.8019 C   0  0  0  0  0  0  0  0  0  0  0  0
   -7.7209    5.8313   -9.4226 C   0  0  0  0  0  0  0  0  0  0  0  0
   -8.1277    4.7001   -8.7612 C   0  0  0  0  0  0  0  0  0  0  0  0
   -8.2074    4.5191   -7.3250 C   0  0  0  0  0  0  0  0  0  0  0  0
   -7.7777    5.3202   -6.5152 O   0  0  0  0  0  0  0  0  0  0  0  0
  1  2  1  0
  2  3  1  0
  3  4  1  0
  4  5  1  0
  5  6  1  0
  6  7  1  0
  7  8  2  0
  8  9  1  0
  9 10  1  0
 10 11  1  0
 11 12  2  0
 11 13  1  0
 13 14  2  0
 14 15  1  0
 15 16  1  0
 16 17  1  0
 17 18  1  0
 15 19  2  0
 19 20  1  0
 20 21  2  0
 21 22  1  0
 22 23  1  0
 22 24  2  0
 24 25  1  0
 25 26  1  0
 26 27  1  0
 26 28  1  0
 26 29  1  0
  9 30  2  0
 30 31  1  0
 31 32  2  0
 32 33  1  0
 33 34  2  0
 33  5  1  0
 32  7  1  0
 21 13  1  0
 18 16  1  0
 25 20  1  0
M  END
>  <name>  (830) 
P125781

>  <alias>  (830) 
None

>  <smina_score_min>  (830) 
-8.677

>  <exports>  (830) 
['/opt/xchem-fragalysis-2/maxwin/BulkDock/OUTPUTS/openbind_xx01zvns2b_c2_elabs_1LOUTNY.sdf', '/opt/xchem-fragalysis-2/maxwin/BulkDock/OUTPUTS/openbind_xx01zvns2b_c2_elabs_1LSYIIV.sdf']

>  <tags>  (830) 
syndirella_placed,openbind_xx01zvns2b_c2_elabs,openbind_xx01zvns2b_c2_elabs_scored_6.2plus,syndirella_product,openbind_xx01zvns2b_c2_elabs_scored,openbind_xx01zvns2b_c2_elabs_scored_top80percent,BulkDock Fragalysis export

>  <subsites>  (830) 
1 - Z4590/B/203/1

>  <smiles>  (830) 
CCCCN1Cc2cc(NC(=O)c3cc(C4CC4)nc4c3c(C)nn4C(C)(C)C)ccc2C1=O

>  <HIPPO Pose ID>  (830) 
125781

>  <energy_score>  (830) 
-34.398084

>  <inchikey>  (830) 
RZXFHHUYGRYWAH-UHFFFAOYSA-N

>  <gnina_score_min>  (830) 
6.473

>  <gnina_score>  (830) 
6.557

>  <ref_mols>  (830) 
Z3559a

>  <HIPPO Compound ID>  (830) 
187923

>  <distance_score>  (830) 
0.623044

>  <rmsd(smina/fragmenstein)>  (830) 
1.05

>  <ref_pdb>  (830) 
Z3559a

>  <inspiration_score>  (830) 
None

$$$$
P125784
     RDKit          3D

 34 38  0  0  0  0  0  0  0  0999 V2000
   -4.1779    6.4090  -14.4637 C   0  0  0  0  0  0  0  0  0  0  0  0
   -4.7547    5.9294  -15.7452 C   0  0  0  0  0  0  0  0  0  0  0  0
   -4.0247    6.0165  -16.8613 N   0  0  0  0  0  0  0  0  0  0  0  0
   -4.8419    5.5458  -17.8387 N   0  0  0  0  0  0  0  0  0  0  0  0
   -4.4618    5.8298  -19.2331 C   0  0  0  0  0  0  0  0  0  0  0  0
   -2.9746    5.4856  -19.4686 C   0  0  0  0  0  0  0  0  0  0  0  0
   -5.2998    5.0763  -20.2711 C   0  0  0  0  0  0  0  0  0  0  0  0
   -4.6627    7.3407  -19.4919 C   0  0  0  0  0  0  0  0  0  0  0  0
   -6.0185    5.0321  -17.3374 C   0  0  0  0  0  0  0  0  0  0  0  0
   -7.0032    4.3997  -17.9970 N   0  0  0  0  0  0  0  0  0  0  0  0
   -8.1094    4.0879  -17.2699 C   0  0  0  0  0  0  0  0  0  0  0  0
   -9.2096    3.3688  -18.0114 C   0  0  0  0  0  0  0  0  0  0  0  0
   -9.5779    3.9326  -19.3600 C   0  0  0  0  0  0  0  0  0  0  0  0
  -10.5732    3.9715  -18.2537 C   0  0  0  0  0  0  0  0  0  0  0  0
   -8.2623    4.4351  -15.9295 C   0  0  0  0  0  0  0  0  0  0  0  0
   -7.2216    5.1105  -15.2980 C   0  0  0  0  0  0  0  0  0  0  0  0
   -7.3772    5.7542  -13.9907 C   0  0  0  0  0  0  0  0  0  0  0  0
   -7.0966    6.8845  -13.9326 O   0  0  0  0  0  0  0  0  0  0  0  0
   -7.7984    4.7735  -12.8843 N   0  0  0  0  0  0  0  0  0  0  0  0
   -7.8698    4.9426  -11.5103 C   0  0  0  0  0  0  0  0  0  0  0  0
   -7.3684    6.1445  -10.9747 C   0  0  0  0  0  0  0  0  0  0  0  0
   -7.1469    6.2883   -9.6156 C   0  0  0  0  0  0  0  0  0  0  0  0
   -7.4934    5.2350   -8.8115 C   0  0  0  0  0  0  0  0  0  0  0  0
   -8.1242    4.1067   -9.3151 C   0  0  0  0  0  0  0  0  0  0  0  0
   -8.2935    3.9132  -10.6757 C   0  0  0  0  0  0  0  0  0  0  0  0
   -8.5384    3.2589   -8.1645 C   0  0  0  0  0  0  0  0  0  0  0  0
   -8.0693    3.9547   -6.9165 N   0  0  0  0  0  0  0  0  0  0  0  0
   -9.1363    4.5084   -6.0903 C   0  0  0  0  0  0  0  0  0  0  0  0
   -9.8006    3.4932   -5.1779 C   0  0  0  0  0  0  0  0  0  0  0  0
  -10.7584    2.5469   -5.8979 C   0  0  0  0  0  0  0  0  0  0  0  0
  -10.0869    1.3215   -6.5203 C   0  0  0  0  0  0  0  0  0  0  0  0
  -11.7892    2.0770   -4.9117 C   0  0  0  0  0  0  0  0  0  0  0  0
   -7.2114    5.0606   -7.3684 C   0  0  0  0  0  0  0  0  0  0  0  0
   -6.0305    5.3625  -15.9966 C   0  0  0  0  0  0  0  0  0  0  0  0
  1  2  1  0
  2  3  2  0
  3  4  1  0
  4  5  1  0
  5  6  1  0
  5  7  1  0
  5  8  1  0
  4  9  1  0
  9 10  2  0
 10 11  1  0
 11 12  1  0
 12 13  1  0
 13 14  1  0
 11 15  2  0
 15 16  1  0
 16 17  1  0
 17 18  2  0
 17 19  1  0
 19 20  1  0
 20 21  2  0
 21 22  1  0
 22 23  2  0
 23 24  1  0
 24 25  2  0
 24 26  1  0
 26 27  1  0
 27 28  1  0
 28 29  1  0
 29 30  1  0
 30 31  1  0
 30 32  1  0
 27 33  1  0
 16 34  2  0
 34  2  1  0
 34  9  1  0
 14 12  1  0
 25 20  1  0
 33 23  1  0
M  END
>  <name>  (831) 
P125784

>  <alias>  (831) 
None

>  <smina_score_min>  (831) 
-7.674

>  <exports>  (831) 
['/opt/xchem-fragalysis-2/maxwin/BulkDock/OUTPUTS/openbind_xx01zvns2b_c2_elabs_1LOUTNY.sdf', '/opt/xchem-fragalysis-2/maxwin/BulkDock/OUTPUTS/openbind_xx01zvns2b_c2_elabs_1LSYIIV.sdf']

>  <tags>  (831) 
syndirella_placed,openbind_xx01zvns2b_c2_elabs,openbind_xx01zvns2b_c2_elabs_scored_6.2plus,syndirella_product,openbind_xx01zvns2b_c2_elabs_scored,openbind_xx01zvns2b_c2_elabs_scored_top80percent,BulkDock Fragalysis export

>  <subsites>  (831) 
1 - Z4590/B/203/1

>  <smiles>  (831) 
Cc1nn(C(C)(C)C)c2nc(C3CC3)cc(C(=O)Nc3ccc4c(c3)CN(CCC(C)C)C4)c12

>  <HIPPO Pose ID>  (831) 
125784

>  <energy_score>  (831) 
-36.056311

>  <inchikey>  (831) 
INQJBWRJGCKNQH-UHFFFAOYSA-N

>  <gnina_score_min>  (831) 
6.433

>  <gnina_score>  (831) 
6.656

>  <ref_mols>  (831) 
Z3559a

>  <HIPPO Compound ID>  (831) 
187925

>  <distance_score>  (831) 
1.113816

>  <rmsd(smina/fragmenstein)>  (831) 
1.43

>  <ref_pdb>  (831) 
Z3559a

>  <inspiration_score>  (831) 
None

$$$$
P125786
     RDKit          3D

 34 38  0  0  0  0  0  0  0  0999 V2000
  -11.3999    2.0059   -5.3030 C   0  0  0  0  0  0  0  0  0  0  0  0
  -10.5530    2.9581   -5.9103 O   0  0  0  0  0  0  0  0  0  0  0  0
   -9.3143    2.3386   -6.2481 C   0  0  0  0  0  0  0  0  0  0  0  0
   -8.8838    2.9161   -7.4696 N   0  0  0  0  0  0  0  0  0  0  0  0
   -8.2687    4.1244   -7.5342 C   0  0  0  0  0  0  0  0  0  0  0  0
   -7.8769    4.8632   -6.6482 O   0  0  0  0  0  0  0  0  0  0  0  0
   -8.1252    4.4118   -8.9521 C   0  0  0  0  0  0  0  0  0  0  0  0
   -7.6407    5.5413   -9.5633 C   0  0  0  0  0  0  0  0  0  0  0  0
   -7.6116    5.5312  -10.9563 C   0  0  0  0  0  0  0  0  0  0  0  0
   -8.0276    4.4006  -11.7008 C   0  0  0  0  0  0  0  0  0  0  0  0
   -7.8665    4.4122  -13.0855 N   0  0  0  0  0  0  0  0  0  0  0  0
   -7.3682    5.5280  -14.0269 C   0  0  0  0  0  0  0  0  0  0  0  0
   -7.0871    6.6384  -13.8019 O   0  0  0  0  0  0  0  0  0  0  0  0
   -7.1272    5.0608  -15.4055 C   0  0  0  0  0  0  0  0  0  0  0  0
   -8.1339    4.5075  -16.2050 C   0  0  0  0  0  0  0  0  0  0  0  0
   -7.9006    4.3431  -17.5779 C   0  0  0  0  0  0  0  0  0  0  0  0
   -8.9169    3.8358  -18.5688 C   0  0  0  0  0  0  0  0  0  0  0  0
   -9.5033    2.4700  -18.3742 C   0  0  0  0  0  0  0  0  0  0  0  0
  -10.3814    3.6939  -18.3069 C   0  0  0  0  0  0  0  0  0  0  0  0
   -6.7349    4.6928  -18.1589 N   0  0  0  0  0  0  0  0  0  0  0  0
   -5.7913    5.1958  -17.3597 C   0  0  0  0  0  0  0  0  0  0  0  0
   -5.8915    5.3782  -15.9951 C   0  0  0  0  0  0  0  0  0  0  0  0
   -4.6282    5.8993  -15.6135 C   0  0  0  0  0  0  0  0  0  0  0  0
   -4.1342    6.2515  -14.2584 C   0  0  0  0  0  0  0  0  0  0  0  0
   -3.8212    6.0738  -16.6673 N   0  0  0  0  0  0  0  0  0  0  0  0
   -4.5673    5.6876  -17.7346 N   0  0  0  0  0  0  0  0  0  0  0  0
   -4.0485    5.9674  -19.0851 C   0  0  0  0  0  0  0  0  0  0  0  0
   -2.6139    5.4105  -19.2188 C   0  0  0  0  0  0  0  0  0  0  0  0
   -4.8945    5.3919  -20.2359 C   0  0  0  0  0  0  0  0  0  0  0  0
   -4.0022    7.5001  -19.2820 C   0  0  0  0  0  0  0  0  0  0  0  0
   -8.5381    3.2743  -11.0518 C   0  0  0  0  0  0  0  0  0  0  0  0
   -8.5954    3.3248   -9.6696 C   0  0  0  0  0  0  0  0  0  0  0  0
   -9.1479    2.3847   -8.6985 C   0  0  0  0  0  0  0  0  0  0  0  0
   -9.7598    1.3804   -8.9987 O   0  0  0  0  0  0  0  0  0  0  0  0
  1  2  1  0
  2  3  1  0
  3  4  1  0
  4  5  1  0
  5  6  2  0
  5  7  1  0
  7  8  2  0
  8  9  1  0
  9 10  2  0
 10 11  1  0
 11 12  1  0
 12 13  2  0
 12 14  1  0
 14 15  2  0
 15 16  1  0
 16 17  1  0
 17 18  1  0
 18 19  1  0
 16 20  2  0
 20 21  1  0
 21 22  2  0
 22 23  1  0
 23 24  1  0
 23 25  2  0
 25 26  1  0
 26 27  1  0
 27 28  1  0
 27 29  1  0
 27 30  1  0
 10 31  1  0
 31 32  2  0
 32 33  1  0
 33 34  2  0
 33  4  1  0
 32  7  1  0
 22 14  1  0
 19 17  1  0
 26 21  1  0
M  END
>  <name>  (832) 
P125786

>  <alias>  (832) 
None

>  <smina_score_min>  (832) 
-9.331

>  <exports>  (832) 
['/opt/xchem-fragalysis-2/maxwin/BulkDock/OUTPUTS/openbind_xx01zvns2b_c2_elabs_1LOUTNY.sdf', '/opt/xchem-fragalysis-2/maxwin/BulkDock/OUTPUTS/openbind_xx01zvns2b_c2_elabs_1LSYIIV.sdf']

>  <tags>  (832) 
syndirella_placed,openbind_xx01zvns2b_c2_elabs,openbind_xx01zvns2b_c2_elabs_scored_6.2plus,syndirella_product,openbind_xx01zvns2b_c2_elabs_scored,openbind_xx01zvns2b_c2_elabs_scored_top80percent,BulkDock Fragalysis export

>  <subsites>  (832) 
1 - Z4590/B/203/1

>  <smiles>  (832) 
COCN1C(=O)c2ccc(NC(=O)c3cc(C4CC4)nc4c3c(C)nn4C(C)(C)C)cc2C1=O

>  <HIPPO Pose ID>  (832) 
125786

>  <energy_score>  (832) 
-45.406222

>  <inchikey>  (832) 
JWVMEZLCZUPLFS-UHFFFAOYSA-N

>  <gnina_score_min>  (832) 
6.571

>  <gnina_score>  (832) 
6.671

>  <ref_mols>  (832) 
Z3559a

>  <HIPPO Compound ID>  (832) 
187927

>  <distance_score>  (832) 
0.747099

>  <rmsd(smina/fragmenstein)>  (832) 
0.9

>  <ref_pdb>  (832) 
Z3559a

>  <inspiration_score>  (832) 
None

$$$$
P125788
     RDKit          3D

 34 38  0  0  0  0  0  0  0  0999 V2000
   -4.1282    6.3139  -14.2386 C   0  0  0  0  0  0  0  0  0  0  0  0
   -4.7504    5.9032  -15.5223 C   0  0  0  0  0  0  0  0  0  0  0  0
   -4.0691    6.0518  -16.6629 N   0  0  0  0  0  0  0  0  0  0  0  0
   -4.9198    5.6168  -17.6292 N   0  0  0  0  0  0  0  0  0  0  0  0
   -4.5537    5.8831  -19.0317 C   0  0  0  0  0  0  0  0  0  0  0  0
   -4.7402    7.3915  -19.3059 C   0  0  0  0  0  0  0  0  0  0  0  0
   -3.0731    5.5185  -19.2794 C   0  0  0  0  0  0  0  0  0  0  0  0
   -5.4114    5.1189  -20.0464 C   0  0  0  0  0  0  0  0  0  0  0  0
   -6.0990    5.1261  -17.1112 C   0  0  0  0  0  0  0  0  0  0  0  0
   -7.1419    4.5958  -17.7776 N   0  0  0  0  0  0  0  0  0  0  0  0
   -8.2292    4.2731  -17.0329 C   0  0  0  0  0  0  0  0  0  0  0  0
   -9.4764    3.7785  -17.7381 C   0  0  0  0  0  0  0  0  0  0  0  0
   -9.4040    2.5867  -18.6575 C   0  0  0  0  0  0  0  0  0  0  0  0
   -9.6492    3.9520  -19.2245 C   0  0  0  0  0  0  0  0  0  0  0  0
   -8.2741    4.4703  -15.6536 C   0  0  0  0  0  0  0  0  0  0  0  0
   -7.1774    5.0351  -15.0049 C   0  0  0  0  0  0  0  0  0  0  0  0
   -7.2851    5.4769  -13.6084 C   0  0  0  0  0  0  0  0  0  0  0  0
   -7.1130    6.6075  -13.3784 O   0  0  0  0  0  0  0  0  0  0  0  0
   -7.6060    4.3023  -12.6634 N   0  0  0  0  0  0  0  0  0  0  0  0
   -7.8668    4.2872  -11.2980 C   0  0  0  0  0  0  0  0  0  0  0  0
   -7.7199    5.4638  -10.5443 C   0  0  0  0  0  0  0  0  0  0  0  0
   -7.9420    5.4636   -9.1705 C   0  0  0  0  0  0  0  0  0  0  0  0
   -8.3097    4.2731   -8.5769 C   0  0  0  0  0  0  0  0  0  0  0  0
   -8.4650    3.1056   -9.3157 C   0  0  0  0  0  0  0  0  0  0  0  0
   -8.2485    3.0919  -10.6838 C   0  0  0  0  0  0  0  0  0  0  0  0
   -8.8737    1.9900   -8.4074 C   0  0  0  0  0  0  0  0  0  0  0  0
   -8.9250    2.5853   -7.0458 N   0  0  0  0  0  0  0  0  0  0  0  0
  -10.1656    2.2412   -6.3374 C   0  0  0  0  0  0  0  0  0  0  0  0
  -10.5696    3.0091   -5.0727 C   0  0  0  0  0  0  0  0  0  0  0  0
  -11.6522    2.4341   -4.4965 F   0  0  0  0  0  0  0  0  0  0  0  0
  -10.9390    4.2826   -5.3725 F   0  0  0  0  0  0  0  0  0  0  0  0
   -9.5908    3.1004   -4.1495 F   0  0  0  0  0  0  0  0  0  0  0  0
   -8.6267    4.0190   -7.1458 C   0  0  0  0  0  0  0  0  0  0  0  0
   -6.0351    5.3526  -15.7465 C   0  0  0  0  0  0  0  0  0  0  0  0
  1  2  1  0
  2  3  2  0
  3  4  1  0
  4  5  1  0
  5  6  1  0
  5  7  1  0
  5  8  1  0
  4  9  1  0
  9 10  2  0
 10 11  1  0
 11 12  1  0
 12 13  1  0
 13 14  1  0
 11 15  2  0
 15 16  1  0
 16 17  1  0
 17 18  2  0
 17 19  1  0
 19 20  1  0
 20 21  2  0
 21 22  1  0
 22 23  2  0
 23 24  1  0
 24 25  2  0
 24 26  1  0
 26 27  1  0
 27 28  1  0
 28 29  1  0
 29 30  1  0
 29 31  1  0
 29 32  1  0
 27 33  1  0
 16 34  2  0
 34  2  1  0
 34  9  1  0
 14 12  1  0
 25 20  1  0
 33 23  1  0
M  END
>  <name>  (833) 
P125788

>  <alias>  (833) 
None

>  <smina_score_min>  (833) 
-10.086

>  <exports>  (833) 
['/opt/xchem-fragalysis-2/maxwin/BulkDock/OUTPUTS/openbind_xx01zvns2b_c2_elabs_1LOUTNY.sdf', '/opt/xchem-fragalysis-2/maxwin/BulkDock/OUTPUTS/openbind_xx01zvns2b_c2_elabs_1LSYIIV.sdf']

>  <tags>  (833) 
syndirella_placed,openbind_xx01zvns2b_c2_elabs,openbind_xx01zvns2b_c2_elabs_scored_6.2plus,syndirella_product,openbind_xx01zvns2b_c2_elabs_scored,openbind_xx01zvns2b_c2_elabs_scored_top80percent,BulkDock Fragalysis export

>  <subsites>  (833) 
1 - Z4590/B/203/1

>  <smiles>  (833) 
Cc1nn(C(C)(C)C)c2nc(C3CC3)cc(C(=O)Nc3ccc4c(c3)CN(CC(F)(F)F)C4)c12

>  <HIPPO Pose ID>  (833) 
125788

>  <energy_score>  (833) 
-52.955567

>  <inchikey>  (833) 
DQYDJJPBYSPFQD-UHFFFAOYSA-N

>  <gnina_score_min>  (833) 
6.763

>  <gnina_score>  (833) 
6.694

>  <ref_mols>  (833) 
Z3559a

>  <HIPPO Compound ID>  (833) 
187931

>  <distance_score>  (833) 
0.442852

>  <rmsd(smina/fragmenstein)>  (833) 
0.791

>  <ref_pdb>  (833) 
Z3559a

>  <inspiration_score>  (833) 
None

$$$$
P125789
     RDKit          3D

 34 38  0  0  0  0  0  0  0  0999 V2000
   -4.1765    6.3158  -14.1800 C   0  0  0  0  0  0  0  0  0  0  0  0
   -4.6658    5.8766  -15.5112 C   0  0  0  0  0  0  0  0  0  0  0  0
   -3.8708    6.0003  -16.5926 N   0  0  0  0  0  0  0  0  0  0  0  0
   -4.6640    5.5986  -17.6068 N   0  0  0  0  0  0  0  0  0  0  0  0
   -4.2594    5.7194  -18.9884 C   0  0  0  0  0  0  0  0  0  0  0  0
   -4.6193    7.0651  -19.5794 C   0  0  0  0  0  0  0  0  0  0  0  0
   -3.7778    8.0309  -19.1280 F   0  0  0  0  0  0  0  0  0  0  0  0
   -5.8734    7.4689  -19.2617 F   0  0  0  0  0  0  0  0  0  0  0  0
   -5.8576    5.0968  -17.1928 C   0  0  0  0  0  0  0  0  0  0  0  0
   -6.7884    4.5845  -17.9931 N   0  0  0  0  0  0  0  0  0  0  0  0
   -7.9707    4.3068  -17.4133 C   0  0  0  0  0  0  0  0  0  0  0  0
   -8.9961    3.8931  -18.4361 C   0  0  0  0  0  0  0  0  0  0  0  0
  -10.4528    3.6976  -18.1981 C   0  0  0  0  0  0  0  0  0  0  0  0
   -9.5495    2.5024  -18.3721 C   0  0  0  0  0  0  0  0  0  0  0  0
   -8.1943    4.4908  -16.0355 C   0  0  0  0  0  0  0  0  0  0  0  0
   -7.1636    5.0102  -15.2265 C   0  0  0  0  0  0  0  0  0  0  0  0
   -7.4419    5.6311  -13.9160 C   0  0  0  0  0  0  0  0  0  0  0  0
   -7.3832    6.7990  -13.9136 O   0  0  0  0  0  0  0  0  0  0  0  0
   -7.6722    4.6354  -12.7527 N   0  0  0  0  0  0  0  0  0  0  0  0
   -7.9638    4.8665  -11.4006 C   0  0  0  0  0  0  0  0  0  0  0  0
   -8.0548    6.2063  -10.9749 C   0  0  0  0  0  0  0  0  0  0  0  0
   -8.3312    6.5444   -9.6549 C   0  0  0  0  0  0  0  0  0  0  0  0
   -8.5075    5.5224   -8.7544 C   0  0  0  0  0  0  0  0  0  0  0  0
   -8.3982    4.1866   -9.1397 C   0  0  0  0  0  0  0  0  0  0  0  0
   -8.1414    3.8327  -10.4694 C   0  0  0  0  0  0  0  0  0  0  0  0
   -8.6329    3.3481   -7.9194 C   0  0  0  0  0  0  0  0  0  0  0  0
   -8.6597    4.2920   -6.7543 N   0  0  0  0  0  0  0  0  0  0  0  0
   -7.5014    4.2892   -5.8591 C   0  0  0  0  0  0  0  0  0  0  0  0
   -6.1625    4.9296   -6.3479 C   0  0  0  0  0  0  0  0  0  0  0  0
   -5.4399    5.8612   -5.3389 C   0  0  0  0  0  0  0  0  0  0  0  0
   -5.0832    5.1967   -4.0104 C   0  0  0  0  0  0  0  0  0  0  0  0
   -6.2166    7.1554   -5.0825 C   0  0  0  0  0  0  0  0  0  0  0  0
   -8.8181    5.6417   -7.3022 C   0  0  0  0  0  0  0  0  0  0  0  0
   -5.9328    5.3115  -15.8361 C   0  0  0  0  0  0  0  0  0  0  0  0
  1  2  1  0
  2  3  2  0
  3  4  1  0
  4  5  1  0
  5  6  1  0
  6  7  1  0
  6  8  1  0
  4  9  1  0
  9 10  2  0
 10 11  1  0
 11 12  1  0
 12 13  1  0
 13 14  1  0
 11 15  2  0
 15 16  1  0
 16 17  1  0
 17 18  2  0
 17 19  1  0
 19 20  1  0
 20 21  2  0
 21 22  1  0
 22 23  2  0
 23 24  1  0
 24 25  2  0
 24 26  1  0
 26 27  1  0
 27 28  1  0
 28 29  1  0
 29 30  1  0
 30 31  1  0
 30 32  1  0
 27 33  1  0
 16 34  2  0
 34  2  1  0
 34  9  1  0
 14 12  1  0
 25 20  1  0
 33 23  1  0
M  END
>  <name>  (834) 
P125789

>  <alias>  (834) 
None

>  <smina_score_min>  (834) 
-7.558

>  <exports>  (834) 
['/opt/xchem-fragalysis-2/maxwin/BulkDock/OUTPUTS/openbind_xx01zvns2b_c2_elabs_1LOUTNY.sdf', '/opt/xchem-fragalysis-2/maxwin/BulkDock/OUTPUTS/openbind_xx01zvns2b_c2_elabs_1LSYIIV.sdf']

>  <tags>  (834) 
syndirella_placed,openbind_xx01zvns2b_c2_elabs,openbind_xx01zvns2b_c2_elabs_scored_6.2plus,syndirella_product,openbind_xx01zvns2b_c2_elabs_scored,openbind_xx01zvns2b_c2_elabs_scored_top80percent,BulkDock Fragalysis export

>  <subsites>  (834) 
1 - Z4590/B/203/1

>  <smiles>  (834) 
Cc1nn(CC(F)F)c2nc(C3CC3)cc(C(=O)Nc3ccc4c(c3)CN(CCC(C)C)C4)c12

>  <HIPPO Pose ID>  (834) 
125789

>  <energy_score>  (834) 
-50.114276

>  <inchikey>  (834) 
HMRSYSOFBYVBDP-UHFFFAOYSA-N

>  <gnina_score_min>  (834) 
6.53

>  <gnina_score>  (834) 
6.506

>  <ref_mols>  (834) 
Z3559a

>  <HIPPO Compound ID>  (834) 
187932

>  <distance_score>  (834) 
1.097823

>  <rmsd(smina/fragmenstein)>  (834) 
1.245

>  <ref_pdb>  (834) 
Z3559a

>  <inspiration_score>  (834) 
None

$$$$
P125790
     RDKit          3D

 34 38  0  0  0  0  0  0  0  0999 V2000
  -11.4358    3.0229   -5.2154 C   0  0  0  0  0  0  0  0  0  0  0  0
  -10.2524    2.1248   -5.3841 C   0  0  0  0  0  0  0  0  0  0  0  0
   -9.4894    2.3408   -6.6732 C   0  0  0  0  0  0  0  0  0  0  0  0
   -8.8716    3.7266   -6.7158 C   0  0  0  0  0  0  0  0  0  0  0  0
   -8.1340    4.0083   -7.9188 N   0  0  0  0  0  0  0  0  0  0  0  0
   -8.3085    3.2670   -9.1597 C   0  0  0  0  0  0  0  0  0  0  0  0
   -7.5438    4.1016  -10.1273 C   0  0  0  0  0  0  0  0  0  0  0  0
   -7.3543    3.9207  -11.4829 C   0  0  0  0  0  0  0  0  0  0  0  0
   -6.6551    4.9097  -12.1869 C   0  0  0  0  0  0  0  0  0  0  0  0
   -6.5470    4.7573  -13.5634 N   0  0  0  0  0  0  0  0  0  0  0  0
   -6.0513    5.6482  -14.5737 C   0  0  0  0  0  0  0  0  0  0  0  0
   -5.5301    6.7218  -14.4830 O   0  0  0  0  0  0  0  0  0  0  0  0
   -6.3384    5.1640  -15.9445 C   0  0  0  0  0  0  0  0  0  0  0  0
   -7.5943    4.6076  -16.2338 C   0  0  0  0  0  0  0  0  0  0  0  0
   -7.9290    4.2475  -17.5364 C   0  0  0  0  0  0  0  0  0  0  0  0
   -9.3054    3.6875  -17.8084 C   0  0  0  0  0  0  0  0  0  0  0  0
   -9.4650    2.5439  -18.7757 C   0  0  0  0  0  0  0  0  0  0  0  0
   -9.9784    3.9086  -19.1369 C   0  0  0  0  0  0  0  0  0  0  0  0
   -7.0763    4.4215  -18.5684 N   0  0  0  0  0  0  0  0  0  0  0  0
   -5.9037    4.9970  -18.2634 C   0  0  0  0  0  0  0  0  0  0  0  0
   -5.4546    5.3812  -17.0106 C   0  0  0  0  0  0  0  0  0  0  0  0
   -4.1561    5.9090  -17.2522 C   0  0  0  0  0  0  0  0  0  0  0  0
   -3.1691    6.4354  -16.2751 C   0  0  0  0  0  0  0  0  0  0  0  0
   -3.8492    5.9118  -18.5606 N   0  0  0  0  0  0  0  0  0  0  0  0
   -4.9290    5.3573  -19.1520 N   0  0  0  0  0  0  0  0  0  0  0  0
   -5.0514    5.3466  -20.5941 C   0  0  0  0  0  0  0  0  0  0  0  0
   -3.7865    4.9401  -21.3153 C   0  0  0  0  0  0  0  0  0  0  0  0
   -3.7926    5.4790  -22.5682 F   0  0  0  0  0  0  0  0  0  0  0  0
   -3.7682    3.5893  -21.5148 F   0  0  0  0  0  0  0  0  0  0  0  0
   -6.1467    6.0437  -11.5261 C   0  0  0  0  0  0  0  0  0  0  0  0
   -6.3232    6.2068  -10.1517 C   0  0  0  0  0  0  0  0  0  0  0  0
   -7.0232    5.2237   -9.4862 C   0  0  0  0  0  0  0  0  0  0  0  0
   -7.4024    5.1672   -8.0748 C   0  0  0  0  0  0  0  0  0  0  0  0
   -7.1316    6.0145   -7.2445 O   0  0  0  0  0  0  0  0  0  0  0  0
  1  2  1  0
  2  3  1  0
  3  4  1  0
  4  5  1  0
  5  6  1  0
  6  7  1  0
  7  8  2  0
  8  9  1  0
  9 10  1  0
 10 11  1  0
 11 12  2  0
 11 13  1  0
 13 14  2  0
 14 15  1  0
 15 16  1  0
 16 17  1  0
 17 18  1  0
 15 19  2  0
 19 20  1  0
 20 21  2  0
 21 22  1  0
 22 23  1  0
 22 24  2  0
 24 25  1  0
 25 26  1  0
 26 27  1  0
 27 28  1  0
 27 29  1  0
  9 30  2  0
 30 31  1  0
 31 32  2  0
 32 33  1  0
 33 34  2  0
 33  5  1  0
 32  7  1  0
 21 13  1  0
 18 16  1  0
 25 20  1  0
M  END
>  <name>  (835) 
P125790

>  <alias>  (835) 
None

>  <smina_score_min>  (835) 
-8.185

>  <exports>  (835) 
['/opt/xchem-fragalysis-2/maxwin/BulkDock/OUTPUTS/openbind_xx01zvns2b_c2_elabs_1LOUTNY.sdf', '/opt/xchem-fragalysis-2/maxwin/BulkDock/OUTPUTS/openbind_xx01zvns2b_c2_elabs_1LSYIIV.sdf']

>  <tags>  (835) 
syndirella_placed,openbind_xx01zvns2b_c2_elabs,openbind_xx01zvns2b_c2_elabs_scored_6.2plus,syndirella_product,openbind_xx01zvns2b_c2_elabs_scored,openbind_xx01zvns2b_c2_elabs_scored_top80percent,BulkDock Fragalysis export

>  <subsites>  (835) 
1 - Z4590/B/203/1

>  <smiles>  (835) 
CCCCN1Cc2cc(NC(=O)c3cc(C4CC4)nc4c3c(C)nn4CC(F)F)ccc2C1=O

>  <HIPPO Pose ID>  (835) 
125790

>  <energy_score>  (835) 
-32.802372

>  <inchikey>  (835) 
CGIHNVOAXMDRJH-UHFFFAOYSA-N

>  <gnina_score_min>  (835) 
6.235

>  <gnina_score>  (835) 
6.343

>  <ref_mols>  (835) 
Z3559a

>  <HIPPO Compound ID>  (835) 
187933

>  <distance_score>  (835) 
1.671115

>  <rmsd(smina/fragmenstein)>  (835) 
0.704

>  <ref_pdb>  (835) 
Z3559a

>  <inspiration_score>  (835) 
None

$$$$
P125791
     RDKit          3D

 34 39  0  0  0  0  0  0  0  0999 V2000
  -11.0375    2.3366   -4.8365 C   0  0  0  0  0  0  0  0  0  0  0  0
   -9.8852    3.3292   -4.7882 C   0  0  0  0  0  0  0  0  0  0  0  0
   -9.4700    3.8303   -3.4076 C   0  0  0  0  0  0  0  0  0  0  0  0
  -10.2495    4.5074   -5.6791 C   0  0  0  0  0  0  0  0  0  0  0  0
   -9.0374    5.1138   -6.3534 C   0  0  0  0  0  0  0  0  0  0  0  0
   -8.0993    4.1113   -6.8845 N   0  0  0  0  0  0  0  0  0  0  0  0
   -6.9246    4.8493   -7.3557 C   0  0  0  0  0  0  0  0  0  0  0  0
   -7.1965    5.0822   -8.7919 C   0  0  0  0  0  0  0  0  0  0  0  0
   -6.6663    6.0664   -9.5805 C   0  0  0  0  0  0  0  0  0  0  0  0
   -6.9557    6.0093  -10.9275 C   0  0  0  0  0  0  0  0  0  0  0  0
   -7.6961    4.9441  -11.4728 C   0  0  0  0  0  0  0  0  0  0  0  0
   -7.6867    4.8332  -12.8585 N   0  0  0  0  0  0  0  0  0  0  0  0
   -7.1053    5.7771  -13.9380 C   0  0  0  0  0  0  0  0  0  0  0  0
   -6.6121    6.8318  -13.8360 O   0  0  0  0  0  0  0  0  0  0  0  0
   -7.0928    5.1968  -15.2891 C   0  0  0  0  0  0  0  0  0  0  0  0
   -8.1515    4.4786  -15.8383 C   0  0  0  0  0  0  0  0  0  0  0  0
   -8.0759    4.0771  -17.1748 C   0  0  0  0  0  0  0  0  0  0  0  0
   -9.1528    3.2078  -17.7449 C   0  0  0  0  0  0  0  0  0  0  0  0
   -9.2119    2.9735  -19.2268 C   0  0  0  0  0  0  0  0  0  0  0  0
  -10.2889    3.7723  -18.5573 C   0  0  0  0  0  0  0  0  0  0  0  0
   -7.0394    4.3845  -17.9907 N   0  0  0  0  0  0  0  0  0  0  0  0
   -6.0470    5.0719  -17.4162 C   0  0  0  0  0  0  0  0  0  0  0  0
   -5.9842    5.4781  -16.1023 C   0  0  0  0  0  0  0  0  0  0  0  0
   -4.7378    6.1321  -16.0006 C   0  0  0  0  0  0  0  0  0  0  0  0
   -4.0707    6.1636  -17.1589 N   0  0  0  0  0  0  0  0  0  0  0  0
   -4.9096    5.5393  -18.0203 N   0  0  0  0  0  0  0  0  0  0  0  0
   -4.6255    5.4725  -19.4445 C   0  0  0  0  0  0  0  0  0  0  0  0
   -5.0505    6.7407  -20.1838 C   0  0  0  0  0  0  0  0  0  0  0  0
   -3.8562    7.6765  -20.0579 C   0  0  0  0  0  0  0  0  0  0  0  0
   -2.6274    6.7722  -20.0013 C   0  0  0  0  0  0  0  0  0  0  0  0
   -3.1394    5.3455  -19.7953 C   0  0  0  0  0  0  0  0  0  0  0  0
   -8.2962    3.9890  -10.6429 C   0  0  0  0  0  0  0  0  0  0  0  0
   -8.0757    4.1140   -9.2786 C   0  0  0  0  0  0  0  0  0  0  0  0
   -8.5994    3.3543   -8.0947 C   0  0  0  0  0  0  0  0  0  0  0  0
  1  2  1  0
  2  3  1  0
  2  4  1  0
  4  5  1  0
  5  6  1  0
  6  7  1  0
  7  8  1  0
  8  9  2  0
  9 10  1  0
 10 11  2  0
 11 12  1  0
 12 13  1  0
 13 14  2  0
 13 15  1  0
 15 16  2  0
 16 17  1  0
 17 18  1  0
 18 19  1  0
 19 20  1  0
 17 21  2  0
 21 22  1  0
 22 23  2  0
 23 24  1  0
 24 25  2  0
 25 26  1  0
 26 27  1  0
 27 28  1  0
 28 29  1  0
 29 30  1  0
 30 31  1  0
 11 32  1  0
 32 33  2  0
 33 34  1  0
 34  6  1  0
 33  8  1  0
 23 15  1  0
 31 27  1  0
 20 18  1  0
 26 22  1  0
M  END
>  <name>  (836) 
P125791

>  <alias>  (836) 
None

>  <smina_score_min>  (836) 
-8.472

>  <exports>  (836) 
['/opt/xchem-fragalysis-2/maxwin/BulkDock/OUTPUTS/openbind_xx01zvns2b_c2_elabs_1LOUTNY.sdf', '/opt/xchem-fragalysis-2/maxwin/BulkDock/OUTPUTS/openbind_xx01zvns2b_c2_elabs_1LSYIIV.sdf']

>  <tags>  (836) 
syndirella_placed,openbind_xx01zvns2b_c2_elabs,openbind_xx01zvns2b_c2_elabs_scored_6.2plus,syndirella_product,openbind_xx01zvns2b_c2_elabs_scored,openbind_xx01zvns2b_c2_elabs_scored_top80percent,BulkDock Fragalysis export

>  <subsites>  (836) 
1 - Z4590/B/203/1

>  <smiles>  (836) 
CC(C)CCN1Cc2ccc(NC(=O)c3cc(C4CC4)nc4c3cnn4C3CCCC3)cc2C1

>  <HIPPO Pose ID>  (836) 
125791

>  <energy_score>  (836) 
-45.796541

>  <inchikey>  (836) 
OIJHDWMYXRPZCN-UHFFFAOYSA-N

>  <gnina_score_min>  (836) 
6.324

>  <gnina_score>  (836) 
6.461

>  <ref_mols>  (836) 
Z3559a

>  <HIPPO Compound ID>  (836) 
187934

>  <distance_score>  (836) 
1.13436

>  <rmsd(smina/fragmenstein)>  (836) 
1.023

>  <ref_pdb>  (836) 
Z3559a

>  <inspiration_score>  (836) 
None

$$$$
P125794
     RDKit          3D

 34 39  0  0  0  0  0  0  0  0999 V2000
  -10.3767    3.9665   -4.3829 C   0  0  0  0  0  0  0  0  0  0  0  0
   -9.4637    3.0034   -4.8656 O   0  0  0  0  0  0  0  0  0  0  0  0
   -9.9075    2.3936   -6.0717 C   0  0  0  0  0  0  0  0  0  0  0  0
   -9.1566    2.8883   -7.1922 N   0  0  0  0  0  0  0  0  0  0  0  0
   -8.5868    4.1234   -7.2718 C   0  0  0  0  0  0  0  0  0  0  0  0
   -8.4582    5.0232   -6.4602 O   0  0  0  0  0  0  0  0  0  0  0  0
   -8.1914    4.3049   -8.6553 C   0  0  0  0  0  0  0  0  0  0  0  0
   -7.6008    5.4007   -9.2396 C   0  0  0  0  0  0  0  0  0  0  0  0
   -7.4211    5.3514  -10.6169 C   0  0  0  0  0  0  0  0  0  0  0  0
   -7.8391    4.2329  -11.3712 C   0  0  0  0  0  0  0  0  0  0  0  0
   -7.6343    4.2374  -12.7471 N   0  0  0  0  0  0  0  0  0  0  0  0
   -7.0903    5.3463  -13.6780 C   0  0  0  0  0  0  0  0  0  0  0  0
   -6.6574    6.4014  -13.4259 O   0  0  0  0  0  0  0  0  0  0  0  0
   -7.1151    4.9577  -15.0992 C   0  0  0  0  0  0  0  0  0  0  0  0
   -8.2454    4.4138  -15.7125 C   0  0  0  0  0  0  0  0  0  0  0  0
   -8.2594    4.2231  -17.0986 C   0  0  0  0  0  0  0  0  0  0  0  0
   -9.5345    3.7516  -17.7618 C   0  0  0  0  0  0  0  0  0  0  0  0
   -9.7381    3.9122  -19.2459 C   0  0  0  0  0  0  0  0  0  0  0  0
   -9.5050    2.5483  -18.6682 C   0  0  0  0  0  0  0  0  0  0  0  0
   -7.1963    4.5162  -17.8911 N   0  0  0  0  0  0  0  0  0  0  0  0
   -6.1360    5.0420  -17.2570 C   0  0  0  0  0  0  0  0  0  0  0  0
   -6.0205    5.2890  -15.9041 C   0  0  0  0  0  0  0  0  0  0  0  0
   -4.7452    5.8729  -15.7589 C   0  0  0  0  0  0  0  0  0  0  0  0
   -4.0972    5.9983  -16.9215 N   0  0  0  0  0  0  0  0  0  0  0  0
   -4.9688    5.4884  -17.8239 N   0  0  0  0  0  0  0  0  0  0  0  0
   -4.6906    5.5402  -19.2400 C   0  0  0  0  0  0  0  0  0  0  0  0
   -5.1903    6.8268  -19.8939 C   0  0  0  0  0  0  0  0  0  0  0  0
   -4.4695    6.8793  -21.2388 C   0  0  0  0  0  0  0  0  0  0  0  0
   -3.2574    5.9544  -21.1097 C   0  0  0  0  0  0  0  0  0  0  0  0
   -3.2144    5.5360  -19.6448 C   0  0  0  0  0  0  0  0  0  0  0  0
   -8.4452    3.1348  -10.7498 C   0  0  0  0  0  0  0  0  0  0  0  0
   -8.6043    3.2033   -9.3769 C   0  0  0  0  0  0  0  0  0  0  0  0
   -9.2756    2.3122   -8.4316 C   0  0  0  0  0  0  0  0  0  0  0  0
   -9.9070    1.3290   -8.7650 O   0  0  0  0  0  0  0  0  0  0  0  0
  1  2  1  0
  2  3  1  0
  3  4  1  0
  4  5  1  0
  5  6  2  0
  5  7  1  0
  7  8  2  0
  8  9  1  0
  9 10  2  0
 10 11  1  0
 11 12  1  0
 12 13  2  0
 12 14  1  0
 14 15  2  0
 15 16  1  0
 16 17  1  0
 17 18  1  0
 18 19  1  0
 16 20  2  0
 20 21  1  0
 21 22  2  0
 22 23  1  0
 23 24  2  0
 24 25  1  0
 25 26  1  0
 26 27  1  0
 27 28  1  0
 28 29  1  0
 29 30  1  0
 10 31  1  0
 31 32  2  0
 32 33  1  0
 33 34  2  0
 33  4  1  0
 32  7  1  0
 22 14  1  0
 30 26  1  0
 19 17  1  0
 25 21  1  0
M  END
>  <name>  (837) 
P125794

>  <alias>  (837) 
None

>  <smina_score_min>  (837) 
-9.162

>  <exports>  (837) 
['/opt/xchem-fragalysis-2/maxwin/BulkDock/OUTPUTS/openbind_xx01zvns2b_c2_elabs_1LOUTNY.sdf', '/opt/xchem-fragalysis-2/maxwin/BulkDock/OUTPUTS/openbind_xx01zvns2b_c2_elabs_1LSYIIV.sdf']

>  <tags>  (837) 
syndirella_placed,openbind_xx01zvns2b_c2_elabs,openbind_xx01zvns2b_c2_elabs_scored_6.2plus,syndirella_product,openbind_xx01zvns2b_c2_elabs_scored,openbind_xx01zvns2b_c2_elabs_scored_top80percent,BulkDock Fragalysis export

>  <subsites>  (837) 
1 - Z4590/B/203/1

>  <smiles>  (837) 
COCN1C(=O)c2ccc(NC(=O)c3cc(C4CC4)nc4c3cnn4C3CCCC3)cc2C1=O

>  <HIPPO Pose ID>  (837) 
125794

>  <energy_score>  (837) 
-53.606085

>  <inchikey>  (837) 
APGAJTLAELAJAZ-UHFFFAOYSA-N

>  <gnina_score_min>  (837) 
6.377

>  <gnina_score>  (837) 
6.49

>  <ref_mols>  (837) 
Z3559a

>  <HIPPO Compound ID>  (837) 
187936

>  <distance_score>  (837) 
0.43913

>  <rmsd(smina/fragmenstein)>  (837) 
0.533

>  <ref_pdb>  (837) 
Z3559a

>  <inspiration_score>  (837) 
None

$$$$
P125795
     RDKit          3D

 34 39  0  0  0  0  0  0  0  0999 V2000
   -9.8052    4.6945   -4.2286 C   0  0  0  0  0  0  0  0  0  0  0  0
  -10.6420    3.5520   -4.2268 O   0  0  0  0  0  0  0  0  0  0  0  0
  -10.7586    2.8895   -5.4907 C   0  0  0  0  0  0  0  0  0  0  0  0
   -9.4537    2.3089   -6.0493 C   0  0  0  0  0  0  0  0  0  0  0  0
   -9.0425    2.9305   -7.2891 N   0  0  0  0  0  0  0  0  0  0  0  0
   -9.1441    2.2490   -8.5744 C   0  0  0  0  0  0  0  0  0  0  0  0
   -8.5670    3.2625   -9.5083 C   0  0  0  0  0  0  0  0  0  0  0  0
   -8.4503    3.2576  -10.8878 C   0  0  0  0  0  0  0  0  0  0  0  0
   -7.8874    4.3868  -11.4989 C   0  0  0  0  0  0  0  0  0  0  0  0
   -7.7250    4.4190  -12.8782 N   0  0  0  0  0  0  0  0  0  0  0  0
   -7.1656    5.5287  -13.7977 C   0  0  0  0  0  0  0  0  0  0  0  0
   -6.8255    6.6180  -13.5489 O   0  0  0  0  0  0  0  0  0  0  0  0
   -7.0641    5.1018  -15.2052 C   0  0  0  0  0  0  0  0  0  0  0  0
   -8.0820    4.4184  -15.8638 C   0  0  0  0  0  0  0  0  0  0  0  0
   -7.9548    4.1466  -17.2282 C   0  0  0  0  0  0  0  0  0  0  0  0
   -8.9888    3.2641  -17.8718 C   0  0  0  0  0  0  0  0  0  0  0  0
   -8.9402    2.9900  -19.3461 C   0  0  0  0  0  0  0  0  0  0  0  0
  -10.0547    3.8183  -18.7764 C   0  0  0  0  0  0  0  0  0  0  0  0
   -6.9162    4.5941  -17.9836 N   0  0  0  0  0  0  0  0  0  0  0  0
   -5.9567    5.2473  -17.3085 C   0  0  0  0  0  0  0  0  0  0  0  0
   -5.9467    5.4990  -15.9476 C   0  0  0  0  0  0  0  0  0  0  0  0
   -4.7309    6.1673  -15.7160 C   0  0  0  0  0  0  0  0  0  0  0  0
   -4.0280    6.3587  -16.8334 N   0  0  0  0  0  0  0  0  0  0  0  0
   -4.8227    5.8432  -17.8079 N   0  0  0  0  0  0  0  0  0  0  0  0
   -4.4775    6.1561  -19.1757 C   0  0  0  0  0  0  0  0  0  0  0  0
   -4.4502    5.0228  -20.1952 C   0  0  0  0  0  0  0  0  0  0  0  0
   -4.6265    5.6903  -21.5612 C   0  0  0  0  0  0  0  0  0  0  0  0
   -4.9383    7.1570  -21.2822 C   0  0  0  0  0  0  0  0  0  0  0  0
   -5.3877    7.1915  -19.8284 C   0  0  0  0  0  0  0  0  0  0  0  0
   -7.4608    5.4903  -10.7331 C   0  0  0  0  0  0  0  0  0  0  0  0
   -7.5628    5.4821   -9.3493 C   0  0  0  0  0  0  0  0  0  0  0  0
   -8.1081    4.3570   -8.7771 C   0  0  0  0  0  0  0  0  0  0  0  0
   -8.3371    4.1090   -7.3619 C   0  0  0  0  0  0  0  0  0  0  0  0
   -7.9532    4.8499   -6.4765 O   0  0  0  0  0  0  0  0  0  0  0  0
  1  2  1  0
  2  3  1  0
  3  4  1  0
  4  5  1  0
  5  6  1  0
  6  7  1  0
  7  8  2  0
  8  9  1  0
  9 10  1  0
 10 11  1  0
 11 12  2  0
 11 13  1  0
 13 14  2  0
 14 15  1  0
 15 16  1  0
 16 17  1  0
 17 18  1  0
 15 19  2  0
 19 20  1  0
 20 21  2  0
 21 22  1  0
 22 23  2  0
 23 24  1  0
 24 25  1  0
 25 26  1  0
 26 27  1  0
 27 28  1  0
 28 29  1  0
  9 30  2  0
 30 31  1  0
 31 32  2  0
 32 33  1  0
 33 34  2  0
 33  5  1  0
 32  7  1  0
 21 13  1  0
 29 25  1  0
 18 16  1  0
 24 20  1  0
M  END
>  <name>  (838) 
P125795

>  <alias>  (838) 
None

>  <smina_score_min>  (838) 
-8.635

>  <exports>  (838) 
['/opt/xchem-fragalysis-2/maxwin/BulkDock/OUTPUTS/openbind_xx01zvns2b_c2_elabs_1LOUTNY.sdf', '/opt/xchem-fragalysis-2/maxwin/BulkDock/OUTPUTS/openbind_xx01zvns2b_c2_elabs_1LSYIIV.sdf']

>  <tags>  (838) 
syndirella_placed,openbind_xx01zvns2b_c2_elabs,openbind_xx01zvns2b_c2_elabs_scored_6.2plus,syndirella_product,openbind_xx01zvns2b_c2_elabs_scored,openbind_xx01zvns2b_c2_elabs_scored_top80percent,BulkDock Fragalysis export

>  <subsites>  (838) 
1 - Z4590/B/203/1

>  <smiles>  (838) 
COCCN1Cc2cc(NC(=O)c3cc(C4CC4)nc4c3cnn4C3CCCC3)ccc2C1=O

>  <HIPPO Pose ID>  (838) 
125795

>  <energy_score>  (838) 
-39.315229

>  <inchikey>  (838) 
BMACCDUCYVPHSZ-UHFFFAOYSA-N

>  <gnina_score_min>  (838) 
6.494

>  <gnina_score>  (838) 
6.49

>  <ref_mols>  (838) 
Z3559a

>  <HIPPO Compound ID>  (838) 
187938

>  <distance_score>  (838) 
0.636761

>  <rmsd(smina/fragmenstein)>  (838) 
0.317

>  <ref_pdb>  (838) 
Z3559a

>  <inspiration_score>  (838) 
None

$$$$
P125796
     RDKit          3D

 34 39  0  0  0  0  0  0  0  0999 V2000
   -6.8575    6.5298  -13.3316 O   0  0  0  0  0  0  0  0  0  0  0  0
   -7.2147    5.4498  -13.5930 C   0  0  0  0  0  0  0  0  0  0  0  0
   -7.7982    4.3433  -12.6899 N   0  0  0  0  0  0  0  0  0  0  0  0
   -7.9704    4.3004  -11.3109 C   0  0  0  0  0  0  0  0  0  0  0  0
   -7.7523    5.4558  -10.5419 C   0  0  0  0  0  0  0  0  0  0  0  0
   -7.9186    5.4351   -9.1600 C   0  0  0  0  0  0  0  0  0  0  0  0
   -8.2978    4.2445   -8.5732 C   0  0  0  0  0  0  0  0  0  0  0  0
   -8.5097    3.0950   -9.3257 C   0  0  0  0  0  0  0  0  0  0  0  0
   -8.3584    3.1042  -10.7027 C   0  0  0  0  0  0  0  0  0  0  0  0
   -8.9012    1.9709   -8.4208 C   0  0  0  0  0  0  0  0  0  0  0  0
   -8.9251    2.5500   -7.0507 N   0  0  0  0  0  0  0  0  0  0  0  0
  -10.1773    2.2354   -6.3464 C   0  0  0  0  0  0  0  0  0  0  0  0
  -10.5775    3.0153   -5.0884 C   0  0  0  0  0  0  0  0  0  0  0  0
  -10.9481    4.2865   -5.4021 F   0  0  0  0  0  0  0  0  0  0  0  0
  -11.6610    2.4527   -4.5013 F   0  0  0  0  0  0  0  0  0  0  0  0
   -9.5975    3.1182   -4.1677 F   0  0  0  0  0  0  0  0  0  0  0  0
   -8.5818    3.9751   -7.1376 C   0  0  0  0  0  0  0  0  0  0  0  0
   -7.1418    5.0285  -15.0031 C   0  0  0  0  0  0  0  0  0  0  0  0
   -8.2339    4.4652  -15.6622 C   0  0  0  0  0  0  0  0  0  0  0  0
   -8.1869    4.2775  -17.0461 C   0  0  0  0  0  0  0  0  0  0  0  0
   -9.4374    3.7854  -17.7491 C   0  0  0  0  0  0  0  0  0  0  0  0
   -9.6116    3.9567  -19.2349 C   0  0  0  0  0  0  0  0  0  0  0  0
   -9.3747    2.5911  -18.6653 C   0  0  0  0  0  0  0  0  0  0  0  0
   -7.0970    4.6036  -17.7911 N   0  0  0  0  0  0  0  0  0  0  0  0
   -6.0580    5.1277  -17.1141 C   0  0  0  0  0  0  0  0  0  0  0  0
   -6.0093    5.3571  -15.7507 C   0  0  0  0  0  0  0  0  0  0  0  0
   -4.7485    5.9375  -15.5243 C   0  0  0  0  0  0  0  0  0  0  0  0
   -4.0401    6.0816  -16.6450 N   0  0  0  0  0  0  0  0  0  0  0  0
   -4.8649    5.6013  -17.6132 N   0  0  0  0  0  0  0  0  0  0  0  0
   -4.4743    5.8320  -18.9871 C   0  0  0  0  0  0  0  0  0  0  0  0
   -3.0382    5.3983  -19.3190 C   0  0  0  0  0  0  0  0  0  0  0  0
   -3.0174    5.1094  -20.8215 C   0  0  0  0  0  0  0  0  0  0  0  0
   -4.4425    5.3218  -21.3170 C   0  0  0  0  0  0  0  0  0  0  0  0
   -5.3046    5.1714  -20.0760 C   0  0  0  0  0  0  0  0  0  0  0  0
  1  2  2  0
  2  3  1  0
  3  4  1  0
  4  5  2  0
  5  6  1  0
  6  7  2  0
  7  8  1  0
  8  9  2  0
  8 10  1  0
 10 11  1  0
 11 12  1  0
 12 13  1  0
 13 14  1  0
 13 15  1  0
 13 16  1  0
 11 17  1  0
  2 18  1  0
 18 19  2  0
 19 20  1  0
 20 21  1  0
 21 22  1  0
 22 23  1  0
 20 24  2  0
 24 25  1  0
 25 26  2  0
 26 27  1  0
 27 28  2  0
 28 29  1  0
 29 30  1  0
 30 31  1  0
 31 32  1  0
 32 33  1  0
 33 34  1  0
  9  4  1  0
 26 18  1  0
 34 30  1  0
 17  7  1  0
 23 21  1  0
 29 25  1  0
M  END
>  <name>  (839) 
P125796

>  <alias>  (839) 
None

>  <smina_score_min>  (839) 
-10.256

>  <exports>  (839) 
['/opt/xchem-fragalysis-2/maxwin/BulkDock/OUTPUTS/openbind_xx01zvns2b_c2_elabs_1LOUTNY.sdf', '/opt/xchem-fragalysis-2/maxwin/BulkDock/OUTPUTS/openbind_xx01zvns2b_c2_elabs_1LSYIIV.sdf']

>  <tags>  (839) 
syndirella_placed,openbind_xx01zvns2b_c2_elabs,openbind_xx01zvns2b_c2_elabs_scored_6.2plus,syndirella_product,openbind_xx01zvns2b_c2_elabs_scored,openbind_xx01zvns2b_c2_elabs_scored_top80percent,BulkDock Fragalysis export

>  <subsites>  (839) 
1 - Z4590/B/203/1

>  <smiles>  (839) 
O=C(Nc1ccc2c(c1)CN(CC(F)(F)F)C2)c1cc(C2CC2)nc2c1cnn2C1CCCC1

>  <HIPPO Pose ID>  (839) 
125796

>  <energy_score>  (839) 
-24.158127

>  <inchikey>  (839) 
OLLMBTRQORJOBN-UHFFFAOYSA-N

>  <gnina_score_min>  (839) 
6.698

>  <gnina_score>  (839) 
6.664

>  <ref_mols>  (839) 
Z3559a

>  <HIPPO Compound ID>  (839) 
187939

>  <distance_score>  (839) 
0.412509

>  <rmsd(smina/fragmenstein)>  (839) 
0.422

>  <ref_pdb>  (839) 
Z3559a

>  <inspiration_score>  (839) 
None

$$$$
P125797
     RDKit          3D

 34 39  0  0  0  0  0  0  0  0999 V2000
   -8.4373    4.8739   -1.9186 C   0  0  0  0  0  0  0  0  0  0  0  0
   -9.4509    4.7705   -2.9085 O   0  0  0  0  0  0  0  0  0  0  0  0
   -9.1512    3.7397   -3.8607 C   0  0  0  0  0  0  0  0  0  0  0  0
  -10.3239    3.6327   -4.8230 C   0  0  0  0  0  0  0  0  0  0  0  0
  -10.1228    2.6996   -6.0265 C   0  0  0  0  0  0  0  0  0  0  0  0
   -8.9624    2.9627   -6.8748 N   0  0  0  0  0  0  0  0  0  0  0  0
   -8.6399    4.3740   -7.0950 C   0  0  0  0  0  0  0  0  0  0  0  0
   -8.3114    4.5039   -8.5358 C   0  0  0  0  0  0  0  0  0  0  0  0
   -7.8832    5.6375   -9.1922 C   0  0  0  0  0  0  0  0  0  0  0  0
   -7.7109    5.5589  -10.5660 C   0  0  0  0  0  0  0  0  0  0  0  0
   -7.9663    4.3645  -11.2622 C   0  0  0  0  0  0  0  0  0  0  0  0
   -7.7942    4.3528  -12.6442 N   0  0  0  0  0  0  0  0  0  0  0  0
   -7.2040    5.4221  -13.5913 C   0  0  0  0  0  0  0  0  0  0  0  0
   -6.8404    6.5103  -13.3718 O   0  0  0  0  0  0  0  0  0  0  0  0
   -7.1340    4.9742  -14.9923 C   0  0  0  0  0  0  0  0  0  0  0  0
   -8.2317    4.4212  -15.6492 C   0  0  0  0  0  0  0  0  0  0  0  0
   -8.1932    4.2519  -17.0368 C   0  0  0  0  0  0  0  0  0  0  0  0
   -9.4495    3.7769  -17.7417 C   0  0  0  0  0  0  0  0  0  0  0  0
   -9.6189    3.9507  -19.2287 C   0  0  0  0  0  0  0  0  0  0  0  0
   -9.3981    2.5825  -18.6590 C   0  0  0  0  0  0  0  0  0  0  0  0
   -7.1071    4.5809  -17.7881 N   0  0  0  0  0  0  0  0  0  0  0  0
   -6.0631    5.0973  -17.1119 C   0  0  0  0  0  0  0  0  0  0  0  0
   -6.0062    5.3106  -15.7463 C   0  0  0  0  0  0  0  0  0  0  0  0
   -4.7472    5.8973  -15.5222 C   0  0  0  0  0  0  0  0  0  0  0  0
   -4.0483    6.0599  -16.6458 N   0  0  0  0  0  0  0  0  0  0  0  0
   -4.8736    5.5799  -17.6125 N   0  0  0  0  0  0  0  0  0  0  0  0
   -4.4895    5.8242  -18.9856 C   0  0  0  0  0  0  0  0  0  0  0  0
   -5.3209    5.1665  -20.0752 C   0  0  0  0  0  0  0  0  0  0  0  0
   -4.4658    5.3318  -21.3189 C   0  0  0  0  0  0  0  0  0  0  0  0
   -3.0382    5.1182  -20.8312 C   0  0  0  0  0  0  0  0  0  0  0  0
   -3.0520    5.4031  -19.3277 C   0  0  0  0  0  0  0  0  0  0  0  0
   -8.3963    3.2197  -10.5787 C   0  0  0  0  0  0  0  0  0  0  0  0
   -8.5619    3.3086   -9.2019 C   0  0  0  0  0  0  0  0  0  0  0  0
   -9.0491    2.2922   -8.2085 C   0  0  0  0  0  0  0  0  0  0  0  0
  1  2  1  0
  2  3  1  0
  3  4  1  0
  4  5  1  0
  5  6  1  0
  6  7  1  0
  7  8  1  0
  8  9  2  0
  9 10  1  0
 10 11  2  0
 11 12  1  0
 12 13  1  0
 13 14  2  0
 13 15  1  0
 15 16  2  0
 16 17  1  0
 17 18  1  0
 18 19  1  0
 19 20  1  0
 17 21  2  0
 21 22  1  0
 22 23  2  0
 23 24  1  0
 24 25  2  0
 25 26  1  0
 26 27  1  0
 27 28  1  0
 28 29  1  0
 29 30  1  0
 30 31  1  0
 11 32  1  0
 32 33  2  0
 33 34  1  0
 34  6  1  0
 33  8  1  0
 23 15  1  0
 31 27  1  0
 20 18  1  0
 26 22  1  0
M  END
>  <name>  (840) 
P125797

>  <alias>  (840) 
None

>  <smina_score_min>  (840) 
-9.253

>  <exports>  (840) 
['/opt/xchem-fragalysis-2/maxwin/BulkDock/OUTPUTS/openbind_xx01zvns2b_c2_elabs_1LOUTNY.sdf', '/opt/xchem-fragalysis-2/maxwin/BulkDock/OUTPUTS/openbind_xx01zvns2b_c2_elabs_1LSYIIV.sdf']

>  <tags>  (840) 
syndirella_placed,openbind_xx01zvns2b_c2_elabs,openbind_xx01zvns2b_c2_elabs_scored_6.2plus,syndirella_product,openbind_xx01zvns2b_c2_elabs_scored,openbind_xx01zvns2b_c2_elabs_scored_top80percent,BulkDock Fragalysis export

>  <subsites>  (840) 
1 - Z4590/B/203/1

>  <smiles>  (840) 
COCCCN1Cc2ccc(NC(=O)c3cc(C4CC4)nc4c3cnn4C3CCCC3)cc2C1

>  <HIPPO Pose ID>  (840) 
125797

>  <energy_score>  (840) 
-92.243517

>  <inchikey>  (840) 
MMCMEYNNZNYLAC-UHFFFAOYSA-N

>  <gnina_score_min>  (840) 
6.718

>  <gnina_score>  (840) 
6.485

>  <ref_mols>  (840) 
Z3559a

>  <HIPPO Compound ID>  (840) 
187940

>  <distance_score>  (840) 
0.482358

>  <rmsd(smina/fragmenstein)>  (840) 
0.922

>  <ref_pdb>  (840) 
Z3559a

>  <inspiration_score>  (840) 
None

$$$$
P125810
     RDKit          3D

 34 39  0  0  0  0  0  0  0  0999 V2000
  -11.3856    2.0055   -5.2947 C   0  0  0  0  0  0  0  0  0  0  0  0
  -10.5475    2.9465   -5.9310 O   0  0  0  0  0  0  0  0  0  0  0  0
   -9.3143    2.3184   -6.2747 C   0  0  0  0  0  0  0  0  0  0  0  0
   -8.8812    2.9017   -7.4927 N   0  0  0  0  0  0  0  0  0  0  0  0
   -8.2442    4.0994   -7.5484 C   0  0  0  0  0  0  0  0  0  0  0  0
   -7.8369    4.8244   -6.6579 O   0  0  0  0  0  0  0  0  0  0  0  0
   -8.1011    4.3973   -8.9645 C   0  0  0  0  0  0  0  0  0  0  0  0
   -7.5932    5.5205   -9.5685 C   0  0  0  0  0  0  0  0  0  0  0  0
   -7.5732    5.5234  -10.9622 C   0  0  0  0  0  0  0  0  0  0  0  0
   -8.0273    4.4137  -11.7156 C   0  0  0  0  0  0  0  0  0  0  0  0
   -7.8894    4.4388  -13.1032 N   0  0  0  0  0  0  0  0  0  0  0  0
   -7.3170    5.5293  -14.0346 C   0  0  0  0  0  0  0  0  0  0  0  0
   -6.9418    6.6090  -13.7948 O   0  0  0  0  0  0  0  0  0  0  0  0
   -7.1369    5.0724  -15.4302 C   0  0  0  0  0  0  0  0  0  0  0  0
   -8.1406    4.4655  -16.2006 C   0  0  0  0  0  0  0  0  0  0  0  0
   -7.9328    4.2789  -17.5798 C   0  0  0  0  0  0  0  0  0  0  0  0
   -8.9599    3.7699  -18.5552 C   0  0  0  0  0  0  0  0  0  0  0  0
   -9.5477    2.4097  -18.3471 C   0  0  0  0  0  0  0  0  0  0  0  0
  -10.4199    3.6401  -18.2766 C   0  0  0  0  0  0  0  0  0  0  0  0
   -6.7772    4.6081  -18.1891 N   0  0  0  0  0  0  0  0  0  0  0  0
   -5.8570    5.1893  -17.4209 C   0  0  0  0  0  0  0  0  0  0  0  0
   -5.9500    5.4511  -16.0747 C   0  0  0  0  0  0  0  0  0  0  0  0
   -4.7504    6.1313  -15.7761 C   0  0  0  0  0  0  0  0  0  0  0  0
   -3.9796    6.3285  -16.8522 N   0  0  0  0  0  0  0  0  0  0  0  0
   -4.6667    5.7132  -17.8490 N   0  0  0  0  0  0  0  0  0  0  0  0
   -4.2757    5.8191  -19.2597 C   0  0  1  0  0  0  0  0  0  0  0  0
   -4.6223    7.2058  -19.8078 C   0  0  0  0  0  0  0  0  0  0  0  0
   -2.8503    5.4374  -19.6082 C   0  0  0  0  0  0  0  0  0  0  0  0
   -1.6520    6.2062  -19.1013 C   0  0  0  0  0  0  0  0  0  0  0  0
   -1.8823    4.7918  -18.6472 C   0  0  0  0  0  0  0  0  0  0  0  0
   -8.5596    3.2937  -11.0733 C   0  0  0  0  0  0  0  0  0  0  0  0
   -8.5999    3.3288   -9.6898 C   0  0  0  0  0  0  0  0  0  0  0  0
   -9.1603    2.3872   -8.7252 C   0  0  0  0  0  0  0  0  0  0  0  0
   -9.7868    1.3948   -9.0348 O   0  0  0  0  0  0  0  0  0  0  0  0
  1  2  1  0
  2  3  1  0
  3  4  1  0
  4  5  1  0
  5  6  2  0
  5  7  1  0
  7  8  2  0
  8  9  1  0
  9 10  2  0
 10 11  1  0
 11 12  1  0
 12 13  2  0
 12 14  1  0
 14 15  2  0
 15 16  1  0
 16 17  1  0
 17 18  1  0
 18 19  1  0
 16 20  2  0
 20 21  1  0
 21 22  2  0
 22 23  1  0
 23 24  2  0
 24 25  1  0
 25 26  1  0
 26 27  1  1
 26 28  1  0
 28 29  1  0
 29 30  1  0
 10 31  1  0
 31 32  2  0
 32 33  1  0
 33 34  2  0
 33  4  1  0
 32  7  1  0
 22 14  1  0
 30 28  1  0
 19 17  1  0
 25 21  1  0
M  END
>  <name>  (841) 
P125810

>  <alias>  (841) 
None

>  <smina_score_min>  (841) 
-8.937

>  <exports>  (841) 
['/opt/xchem-fragalysis-2/maxwin/BulkDock/OUTPUTS/openbind_xx01zvns2b_c2_elabs_1LOUTNY.sdf', '/opt/xchem-fragalysis-2/maxwin/BulkDock/OUTPUTS/openbind_xx01zvns2b_c2_elabs_1LSYIIV.sdf']

>  <tags>  (841) 
syndirella_placed,openbind_xx01zvns2b_c2_elabs,openbind_xx01zvns2b_c2_elabs_scored_6.2plus,syndirella_product,openbind_xx01zvns2b_c2_elabs_scored,openbind_xx01zvns2b_c2_elabs_scored_top80percent,BulkDock Fragalysis export

>  <subsites>  (841) 
1 - Z4590/B/203/1

>  <smiles>  (841) 
COCN1C(=O)c2ccc(NC(=O)c3cc(C4CC4)nc4c3cnn4[C@@H](C)C3CC3)cc2C1=O

>  <HIPPO Pose ID>  (841) 
125810

>  <energy_score>  (841) 
-30.233018

>  <inchikey>  (841) 
AFNPHWROPCUWBC-ZDUSSCGKSA-N

>  <gnina_score_min>  (841) 
6.521

>  <gnina_score>  (841) 
6.629

>  <ref_mols>  (841) 
Z3559a

>  <HIPPO Compound ID>  (841) 
183033

>  <distance_score>  (841) 
0.735928

>  <rmsd(smina/fragmenstein)>  (841) 
0.542

>  <ref_pdb>  (841) 
Z3559a

>  <inspiration_score>  (841) 
None

$$$$
P125813
     RDKit          3D

 34 39  0  0  0  0  0  0  0  0999 V2000
   -7.0075    4.8018   -3.6484 C   0  0  0  0  0  0  0  0  0  0  0  0
   -7.2776    3.7364   -4.5553 O   0  0  0  0  0  0  0  0  0  0  0  0
   -8.7025    3.4999   -4.6359 C   0  0  0  0  0  0  0  0  0  0  0  0
   -9.0727    2.6425   -5.8602 C   0  0  0  0  0  0  0  0  0  0  0  0
   -8.9455    3.2784   -7.1547 N   0  0  0  0  0  0  0  0  0  0  0  0
   -8.9672    2.4831   -8.3846 C   0  0  0  0  0  0  0  0  0  0  0  0
   -8.5317    3.4793   -9.4086 C   0  0  0  0  0  0  0  0  0  0  0  0
   -8.3200    3.3506  -10.7708 C   0  0  0  0  0  0  0  0  0  0  0  0
   -7.8746    4.4836  -11.4674 C   0  0  0  0  0  0  0  0  0  0  0  0
   -7.6091    4.4093  -12.8283 N   0  0  0  0  0  0  0  0  0  0  0  0
   -7.1436    5.4973  -13.8202 C   0  0  0  0  0  0  0  0  0  0  0  0
   -6.8360    6.6082  -13.6354 O   0  0  0  0  0  0  0  0  0  0  0  0
   -7.1127    5.0121  -15.2050 C   0  0  0  0  0  0  0  0  0  0  0  0
   -8.2262    4.4134  -15.7932 C   0  0  0  0  0  0  0  0  0  0  0  0
   -8.2361    4.1858  -17.1708 C   0  0  0  0  0  0  0  0  0  0  0  0
   -9.5152    3.7086  -17.8176 C   0  0  0  0  0  0  0  0  0  0  0  0
   -9.7208    3.8423  -19.3031 C   0  0  0  0  0  0  0  0  0  0  0  0
   -9.5046    2.4873  -18.6965 C   0  0  0  0  0  0  0  0  0  0  0  0
   -7.1742    4.4662  -17.9690 N   0  0  0  0  0  0  0  0  0  0  0  0
   -6.1298    5.0492  -17.3571 C   0  0  0  0  0  0  0  0  0  0  0  0
   -6.0298    5.3559  -16.0158 C   0  0  0  0  0  0  0  0  0  0  0  0
   -4.8008    6.0304  -15.8928 C   0  0  0  0  0  0  0  0  0  0  0  0
   -4.1755    6.1814  -17.0631 N   0  0  0  0  0  0  0  0  0  0  0  0
   -4.9820    5.5322  -17.9447 N   0  0  0  0  0  0  0  0  0  0  0  0
   -4.7456    5.5887  -19.3931 C   0  0  1  0  0  0  0  0  0  0  0  0
   -5.2441    6.9221  -19.9542 C   0  0  0  0  0  0  0  0  0  0  0  0
   -3.3397    5.2993  -19.8916 C   0  0  0  0  0  0  0  0  0  0  0  0
   -2.1587    6.1802  -19.5516 C   0  0  0  0  0  0  0  0  0  0  0  0
   -2.2060    4.7656  -19.0459 C   0  0  0  0  0  0  0  0  0  0  0  0
   -7.6689    5.7121  -10.8081 C   0  0  0  0  0  0  0  0  0  0  0  0
   -7.9001    5.8396   -9.4492 C   0  0  0  0  0  0  0  0  0  0  0  0
   -8.3219    4.7106   -8.7896 C   0  0  0  0  0  0  0  0  0  0  0  0
   -8.6108    4.5933   -7.3704 C   0  0  0  0  0  0  0  0  0  0  0  0
   -8.5533    5.5380   -6.6055 O   0  0  0  0  0  0  0  0  0  0  0  0
  1  2  1  0
  2  3  1  0
  3  4  1  0
  4  5  1  0
  5  6  1  0
  6  7  1  0
  7  8  2  0
  8  9  1  0
  9 10  1  0
 10 11  1  0
 11 12  2  0
 11 13  1  0
 13 14  2  0
 14 15  1  0
 15 16  1  0
 16 17  1  0
 17 18  1  0
 15 19  2  0
 19 20  1  0
 20 21  2  0
 21 22  1  0
 22 23  2  0
 23 24  1  0
 24 25  1  0
 25 26  1  1
 25 27  1  0
 27 28  1  0
 28 29  1  0
  9 30  2  0
 30 31  1  0
 31 32  2  0
 32 33  1  0
 33 34  2  0
 33  5  1  0
 32  7  1  0
 21 13  1  0
 29 27  1  0
 18 16  1  0
 24 20  1  0
M  END
>  <name>  (842) 
P125813

>  <alias>  (842) 
None

>  <smina_score_min>  (842) 
-8.29

>  <exports>  (842) 
['/opt/xchem-fragalysis-2/maxwin/BulkDock/OUTPUTS/openbind_xx01zvns2b_c2_elabs_1LOUTNY.sdf', '/opt/xchem-fragalysis-2/maxwin/BulkDock/OUTPUTS/openbind_xx01zvns2b_c2_elabs_1LSYIIV.sdf']

>  <tags>  (842) 
syndirella_placed,openbind_xx01zvns2b_c2_elabs,openbind_xx01zvns2b_c2_elabs_scored_6.2plus,syndirella_product,openbind_xx01zvns2b_c2_elabs_scored,openbind_xx01zvns2b_c2_elabs_scored_top80percent,BulkDock Fragalysis export

>  <subsites>  (842) 
1 - Z4590/B/203/1

>  <smiles>  (842) 
COCCN1Cc2cc(NC(=O)c3cc(C4CC4)nc4c3cnn4[C@@H](C)C3CC3)ccc2C1=O

>  <HIPPO Pose ID>  (842) 
125813

>  <energy_score>  (842) 
-18.583082

>  <inchikey>  (842) 
QIFYNJKBFLATNT-HNNXBMFYSA-N

>  <gnina_score_min>  (842) 
6.411

>  <gnina_score>  (842) 
6.456

>  <ref_mols>  (842) 
Z3559a

>  <HIPPO Compound ID>  (842) 
183032

>  <distance_score>  (842) 
0.601079

>  <rmsd(smina/fragmenstein)>  (842) 
0.849

>  <ref_pdb>  (842) 
Z3559a

>  <inspiration_score>  (842) 
None

$$$$
P125815
     RDKit          3D

 34 39  0  0  0  0  0  0  0  0999 V2000
   -4.8970    7.5188  -19.6541 C   0  0  0  0  0  0  0  0  0  0  0  0
   -5.0357    6.0009  -19.5067 C   0  0  1  0  0  0  0  0  0  0  0  0
   -4.0387    5.1914  -20.3038 C   0  0  0  0  0  0  0  0  0  0  0  0
   -2.5537    5.2324  -20.0260 C   0  0  0  0  0  0  0  0  0  0  0  0
   -3.0822    5.7823  -21.3196 C   0  0  0  0  0  0  0  0  0  0  0  0
   -5.0863    5.6198  -18.0884 N   0  0  0  0  0  0  0  0  0  0  0  0
   -4.1257    6.0419  -17.2231 N   0  0  0  0  0  0  0  0  0  0  0  0
   -4.6738    5.8273  -16.0225 C   0  0  0  0  0  0  0  0  0  0  0  0
   -5.9591    5.2518  -16.1000 C   0  0  0  0  0  0  0  0  0  0  0  0
   -7.0008    4.8966  -15.2334 C   0  0  0  0  0  0  0  0  0  0  0  0
   -6.9037    5.2850  -13.8122 C   0  0  0  0  0  0  0  0  0  0  0  0
   -6.3377    6.2812  -13.5826 O   0  0  0  0  0  0  0  0  0  0  0  0
   -7.6035    4.2866  -12.8594 N   0  0  0  0  0  0  0  0  0  0  0  0
   -7.8263    4.3518  -11.4885 C   0  0  0  0  0  0  0  0  0  0  0  0
   -7.4344    5.5185  -10.8068 C   0  0  0  0  0  0  0  0  0  0  0  0
   -7.5896    5.6339   -9.4362 C   0  0  0  0  0  0  0  0  0  0  0  0
   -8.1489    4.5664   -8.7746 C   0  0  0  0  0  0  0  0  0  0  0  0
   -8.5689    3.4065   -9.4287 C   0  0  0  0  0  0  0  0  0  0  0  0
   -8.4112    3.2799  -10.8005 C   0  0  0  0  0  0  0  0  0  0  0  0
   -9.1310    2.4605   -8.4017 C   0  0  0  0  0  0  0  0  0  0  0  0
   -9.3104    3.3174   -7.1985 N   0  0  0  0  0  0  0  0  0  0  0  0
   -9.2194    2.6150   -5.9056 C   0  0  0  0  0  0  0  0  0  0  0  0
   -8.8486    3.4782   -4.6671 C   0  0  0  0  0  0  0  0  0  0  0  0
   -9.4413    4.6982   -4.7002 F   0  0  0  0  0  0  0  0  0  0  0  0
   -7.5008    3.6960   -4.6184 F   0  0  0  0  0  0  0  0  0  0  0  0
   -9.1877    2.9306   -3.4846 F   0  0  0  0  0  0  0  0  0  0  0  0
   -8.3605    4.4284   -7.3158 C   0  0  0  0  0  0  0  0  0  0  0  0
   -8.1689    4.3698  -15.7911 C   0  0  0  0  0  0  0  0  0  0  0  0
   -8.2717    4.2227  -17.1774 C   0  0  0  0  0  0  0  0  0  0  0  0
   -9.5725    3.7444  -17.7747 C   0  0  0  0  0  0  0  0  0  0  0  0
   -9.8576    3.9096  -19.2440 C   0  0  0  0  0  0  0  0  0  0  0  0
   -9.5678    2.5466  -18.6887 C   0  0  0  0  0  0  0  0  0  0  0  0
   -7.2753    4.5708  -18.0268 N   0  0  0  0  0  0  0  0  0  0  0  0
   -6.1763    5.0782  -17.4517 C   0  0  0  0  0  0  0  0  0  0  0  0
  2  1  1  1
  2  3  1  0
  3  4  1  0
  4  5  1  0
  2  6  1  0
  6  7  1  0
  7  8  2  0
  8  9  1  0
  9 10  2  0
 10 11  1  0
 11 12  2  0
 11 13  1  0
 13 14  1  0
 14 15  2  0
 15 16  1  0
 16 17  2  0
 17 18  1  0
 18 19  2  0
 18 20  1  0
 20 21  1  0
 21 22  1  0
 22 23  1  0
 23 24  1  0
 23 25  1  0
 23 26  1  0
 21 27  1  0
 10 28  1  0
 28 29  2  0
 29 30  1  0
 30 31  1  0
 31 32  1  0
 29 33  1  0
 33 34  2  0
  5  3  1  0
 34  6  1  0
 34  9  1  0
 19 14  1  0
 32 30  1  0
 27 17  1  0
M  END
>  <name>  (843) 
P125815

>  <alias>  (843) 
None

>  <smina_score_min>  (843) 
-9.199

>  <exports>  (843) 
['/opt/xchem-fragalysis-2/maxwin/BulkDock/OUTPUTS/openbind_xx01zvns2b_c2_elabs_1LOUTNY.sdf', '/opt/xchem-fragalysis-2/maxwin/BulkDock/OUTPUTS/openbind_xx01zvns2b_c2_elabs_1LSYIIV.sdf']

>  <tags>  (843) 
syndirella_placed,openbind_xx01zvns2b_c2_elabs,openbind_xx01zvns2b_c2_elabs_scored_6.2plus,syndirella_product,openbind_xx01zvns2b_c2_elabs_scored,openbind_xx01zvns2b_c2_elabs_scored_top80percent,BulkDock Fragalysis export

>  <subsites>  (843) 
1 - Z4590/B/203/1

>  <smiles>  (843) 
C[C@@H](C1CC1)n1ncc2c(C(=O)Nc3ccc4c(c3)CN(CC(F)(F)F)C4)cc(C3CC3)nc21

>  <HIPPO Pose ID>  (843) 
125815

>  <energy_score>  (843) 
-40.325366

>  <inchikey>  (843) 
FMXMZNDZAQHERK-AWEZNQCLSA-N

>  <gnina_score_min>  (843) 
6.416

>  <gnina_score>  (843) 
6.491

>  <ref_mols>  (843) 
Z3559a

>  <HIPPO Compound ID>  (843) 
183030

>  <distance_score>  (843) 
0.593424

>  <rmsd(smina/fragmenstein)>  (843) 
1.195

>  <ref_pdb>  (843) 
Z3559a

>  <inspiration_score>  (843) 
None

$$$$
P125816
     RDKit          3D

 34 39  0  0  0  0  0  0  0  0999 V2000
   -8.4186    5.0524   -3.4396 C   0  0  0  0  0  0  0  0  0  0  0  0
   -8.7710    3.8441   -4.0985 O   0  0  0  0  0  0  0  0  0  0  0  0
  -10.1252    3.8774   -4.5534 C   0  0  0  0  0  0  0  0  0  0  0  0
  -10.5263    2.5882   -5.2610 C   0  0  0  0  0  0  0  0  0  0  0  0
   -9.5722    2.0567   -6.3302 C   0  0  0  0  0  0  0  0  0  0  0  0
   -9.5336    2.9005   -7.5082 N   0  0  0  0  0  0  0  0  0  0  0  0
   -8.6154    4.0463   -7.3888 C   0  0  0  0  0  0  0  0  0  0  0  0
   -8.2473    4.3415   -8.8017 C   0  0  0  0  0  0  0  0  0  0  0  0
   -7.7336    5.4999   -9.3427 C   0  0  0  0  0  0  0  0  0  0  0  0
   -7.5363    5.5325  -10.7196 C   0  0  0  0  0  0  0  0  0  0  0  0
   -7.8385    4.4144  -11.5158 C   0  0  0  0  0  0  0  0  0  0  0  0
   -7.6623    4.4597  -12.8890 N   0  0  0  0  0  0  0  0  0  0  0  0
   -7.1751    5.6051  -13.7991 C   0  0  0  0  0  0  0  0  0  0  0  0
   -6.9184    6.7148  -13.5466 O   0  0  0  0  0  0  0  0  0  0  0  0
   -7.0748    5.1633  -15.1981 C   0  0  0  0  0  0  0  0  0  0  0  0
   -8.0978    4.4518  -15.8281 C   0  0  0  0  0  0  0  0  0  0  0  0
   -7.9695    4.1087  -17.1741 C   0  0  0  0  0  0  0  0  0  0  0  0
   -9.0173    3.2316  -17.7997 C   0  0  0  0  0  0  0  0  0  0  0  0
   -9.0107    2.9838  -19.2808 C   0  0  0  0  0  0  0  0  0  0  0  0
  -10.1125    3.7947  -18.6661 C   0  0  0  0  0  0  0  0  0  0  0  0
   -6.9071    4.4798  -17.9290 N   0  0  0  0  0  0  0  0  0  0  0  0
   -5.9617    5.1802  -17.2837 C   0  0  0  0  0  0  0  0  0  0  0  0
   -5.9627    5.5391  -15.9515 C   0  0  0  0  0  0  0  0  0  0  0  0
   -4.7622    6.2523  -15.7729 C   0  0  0  0  0  0  0  0  0  0  0  0
   -4.0618    6.3782  -16.9044 N   0  0  0  0  0  0  0  0  0  0  0  0
   -4.8194    5.7199  -17.8200 N   0  0  0  0  0  0  0  0  0  0  0  0
   -4.4803    5.7318  -19.2473 C   0  0  1  0  0  0  0  0  0  0  0  0
   -5.3254    6.7811  -19.9736 C   0  0  0  0  0  0  0  0  0  0  0  0
   -3.0107    6.0055  -19.5064 C   0  0  0  0  0  0  0  0  0  0  0  0
   -1.9463    4.9550  -19.3107 C   0  0  0  0  0  0  0  0  0  0  0  0
   -2.3271    5.3821  -20.7003 C   0  0  0  0  0  0  0  0  0  0  0  0
   -8.3349    3.2390  -10.9503 C   0  0  0  0  0  0  0  0  0  0  0  0
   -8.5431    3.2274   -9.5882 C   0  0  0  0  0  0  0  0  0  0  0  0
   -9.1075    2.1554   -8.7145 C   0  0  0  0  0  0  0  0  0  0  0  0
  1  2  1  0
  2  3  1  0
  3  4  1  0
  4  5  1  0
  5  6  1  0
  6  7  1  0
  7  8  1  0
  8  9  2  0
  9 10  1  0
 10 11  2  0
 11 12  1  0
 12 13  1  0
 13 14  2  0
 13 15  1  0
 15 16  2  0
 16 17  1  0
 17 18  1  0
 18 19  1  0
 19 20  1  0
 17 21  2  0
 21 22  1  0
 22 23  2  0
 23 24  1  0
 24 25  2  0
 25 26  1  0
 26 27  1  0
 27 28  1  6
 27 29  1  0
 29 30  1  0
 30 31  1  0
 11 32  1  0
 32 33  2  0
 33 34  1  0
 34  6  1  0
 33  8  1  0
 23 15  1  0
 31 29  1  0
 20 18  1  0
 26 22  1  0
M  END
>  <name>  (844) 
P125816

>  <alias>  (844) 
None

>  <smina_score_min>  (844) 
-8.417

>  <exports>  (844) 
['/opt/xchem-fragalysis-2/maxwin/BulkDock/OUTPUTS/openbind_xx01zvns2b_c2_elabs_1LOUTNY.sdf', '/opt/xchem-fragalysis-2/maxwin/BulkDock/OUTPUTS/openbind_xx01zvns2b_c2_elabs_1LSYIIV.sdf']

>  <tags>  (844) 
syndirella_placed,openbind_xx01zvns2b_c2_elabs,openbind_xx01zvns2b_c2_elabs_scored_6.2plus,syndirella_product,openbind_xx01zvns2b_c2_elabs_scored,openbind_xx01zvns2b_c2_elabs_scored_top80percent,BulkDock Fragalysis export

>  <subsites>  (844) 
1 - Z4590/B/203/1

>  <smiles>  (844) 
COCCCN1Cc2ccc(NC(=O)c3cc(C4CC4)nc4c3cnn4[C@@H](C)C3CC3)cc2C1

>  <HIPPO Pose ID>  (844) 
125816

>  <energy_score>  (844) 
-68.813885

>  <inchikey>  (844) 
FWULXOOCXGFKSG-KRWDZBQOSA-N

>  <gnina_score_min>  (844) 
6.697

>  <gnina_score>  (844) 
6.613

>  <ref_mols>  (844) 
Z3559a

>  <HIPPO Compound ID>  (844) 
183034

>  <distance_score>  (844) 
0.640399

>  <rmsd(smina/fragmenstein)>  (844) 
0.407

>  <ref_pdb>  (844) 
Z3559a

>  <inspiration_score>  (844) 
None

$$$$
P125821
     RDKit          3D

 34 38  0  0  0  0  0  0  0  0999 V2000
   -8.4616    4.8761   -1.9107 C   0  0  0  0  0  0  0  0  0  0  0  0
   -9.4817    4.7546   -2.8918 O   0  0  0  0  0  0  0  0  0  0  0  0
   -9.1623    3.7434   -3.8584 C   0  0  0  0  0  0  0  0  0  0  0  0
  -10.3324    3.6270   -4.8228 C   0  0  0  0  0  0  0  0  0  0  0  0
  -10.1208    2.6977   -6.0275 C   0  0  0  0  0  0  0  0  0  0  0  0
   -8.9559    2.9674   -6.8675 N   0  0  0  0  0  0  0  0  0  0  0  0
   -8.6486    4.3816   -7.0922 C   0  0  0  0  0  0  0  0  0  0  0  0
   -8.3194    4.5112   -8.5327 C   0  0  0  0  0  0  0  0  0  0  0  0
   -7.9110    5.6499   -9.1931 C   0  0  0  0  0  0  0  0  0  0  0  0
   -7.7381    5.5698  -10.5667 C   0  0  0  0  0  0  0  0  0  0  0  0
   -7.9674    4.3671  -11.2576 C   0  0  0  0  0  0  0  0  0  0  0  0
   -7.7936    4.3508  -12.6392 N   0  0  0  0  0  0  0  0  0  0  0  0
   -7.2743    5.4451  -13.5980 C   0  0  0  0  0  0  0  0  0  0  0  0
   -6.9834    6.5570  -13.3912 O   0  0  0  0  0  0  0  0  0  0  0  0
   -7.1664    4.9789  -14.9886 C   0  0  0  0  0  0  0  0  0  0  0  0
   -8.2710    4.4331  -15.6414 C   0  0  0  0  0  0  0  0  0  0  0  0
   -8.2340    4.2533  -17.0240 C   0  0  0  0  0  0  0  0  0  0  0  0
   -9.4863    3.7761  -17.7318 C   0  0  0  0  0  0  0  0  0  0  0  0
   -9.6549    3.9525  -19.2187 C   0  0  0  0  0  0  0  0  0  0  0  0
   -9.4248    2.5843  -18.6525 C   0  0  0  0  0  0  0  0  0  0  0  0
   -7.1489    4.5775  -17.7709 N   0  0  0  0  0  0  0  0  0  0  0  0
   -6.0984    5.0895  -17.1033 C   0  0  0  0  0  0  0  0  0  0  0  0
   -6.0236    5.2939  -15.7356 C   0  0  0  0  0  0  0  0  0  0  0  0
   -4.7298    5.8287  -15.5148 C   0  0  0  0  0  0  0  0  0  0  0  0
   -4.0855    6.2089  -14.2324 C   0  0  0  0  0  0  0  0  0  0  0  0
   -4.0564    5.9887  -16.6587 N   0  0  0  0  0  0  0  0  0  0  0  0
   -4.9202    5.5802  -17.6239 N   0  0  0  0  0  0  0  0  0  0  0  0
   -4.5672    5.8731  -19.0244 C   0  0  0  0  0  0  0  0  0  0  0  0
   -5.4256    5.1170  -20.0447 C   0  0  0  0  0  0  0  0  0  0  0  0
   -4.7695    7.3839  -19.2712 C   0  0  0  0  0  0  0  0  0  0  0  0
   -3.0852    5.5270  -19.2913 C   0  0  0  0  0  0  0  0  0  0  0  0
   -8.3748    3.2167  -10.5697 C   0  0  0  0  0  0  0  0  0  0  0  0
   -8.5487    3.3094   -9.1945 C   0  0  0  0  0  0  0  0  0  0  0  0
   -9.0314    2.2917   -8.2003 C   0  0  0  0  0  0  0  0  0  0  0  0
  1  2  1  0
  2  3  1  0
  3  4  1  0
  4  5  1  0
  5  6  1  0
  6  7  1  0
  7  8  1  0
  8  9  2  0
  9 10  1  0
 10 11  2  0
 11 12  1  0
 12 13  1  0
 13 14  2  0
 13 15  1  0
 15 16  2  0
 16 17  1  0
 17 18  1  0
 18 19  1  0
 19 20  1  0
 17 21  2  0
 21 22  1  0
 22 23  2  0
 23 24  1  0
 24 25  1  0
 24 26  2  0
 26 27  1  0
 27 28  1  0
 28 29  1  0
 28 30  1  0
 28 31  1  0
 11 32  1  0
 32 33  2  0
 33 34  1  0
 34  6  1  0
 33  8  1  0
 23 15  1  0
 20 18  1  0
 27 22  1  0
M  END
>  <name>  (845) 
P125821

>  <alias>  (845) 
None

>  <smina_score_min>  (845) 
-9.012

>  <exports>  (845) 
['/opt/xchem-fragalysis-2/maxwin/BulkDock/OUTPUTS/openbind_xx01zvns2b_c2_elabs_1LOUTNY.sdf', '/opt/xchem-fragalysis-2/maxwin/BulkDock/OUTPUTS/openbind_xx01zvns2b_c2_elabs_1LSYIIV.sdf']

>  <tags>  (845) 
syndirella_placed,openbind_xx01zvns2b_c2_elabs,openbind_xx01zvns2b_c2_elabs_scored_6.2plus,syndirella_product,openbind_xx01zvns2b_c2_elabs_scored,openbind_xx01zvns2b_c2_elabs_scored_top80percent,BulkDock Fragalysis export

>  <subsites>  (845) 
1 - Z4590/B/203/1

>  <smiles>  (845) 
COCCCN1Cc2ccc(NC(=O)c3cc(C4CC4)nc4c3c(C)nn4C(C)(C)C)cc2C1

>  <HIPPO Pose ID>  (845) 
125821

>  <energy_score>  (845) 
-62.974934

>  <inchikey>  (845) 
PQNKJRYJWDXSDR-UHFFFAOYSA-N

>  <gnina_score_min>  (845) 
6.718

>  <gnina_score>  (845) 
6.595

>  <ref_mols>  (845) 
Z3559a

>  <HIPPO Compound ID>  (845) 
187943

>  <distance_score>  (845) 
0.482823

>  <rmsd(smina/fragmenstein)>  (845) 
0.987

>  <ref_pdb>  (845) 
Z3559a

>  <inspiration_score>  (845) 
None

$$$$
P125824
     RDKit          3D

 34 39  0  0  0  0  0  0  0  0999 V2000
   -4.2108    6.3441  -14.6711 C   0  0  0  0  0  0  0  0  0  0  0  0
   -4.8430    5.8403  -15.9168 C   0  0  0  0  0  0  0  0  0  0  0  0
   -4.1674    5.9266  -17.0766 N   0  0  0  0  0  0  0  0  0  0  0  0
   -5.0140    5.3835  -17.9749 N   0  0  0  0  0  0  0  0  0  0  0  0
   -4.7301    5.4460  -19.3906 C   0  0  0  0  0  0  0  0  0  0  0  0
   -5.1942    6.7702  -19.9759 C   0  0  0  0  0  0  0  0  0  0  0  0
   -5.4191    6.6595  -21.3781 O   0  0  0  0  0  0  0  0  0  0  0  0
   -6.1742    4.9228  -17.4283 C   0  0  0  0  0  0  0  0  0  0  0  0
   -7.1698    4.3176  -18.0853 N   0  0  0  0  0  0  0  0  0  0  0  0
   -8.2587    4.0121  -17.3424 C   0  0  0  0  0  0  0  0  0  0  0  0
   -9.3869    3.3540  -18.0888 C   0  0  0  0  0  0  0  0  0  0  0  0
   -9.7583    3.9961  -19.4023 C   0  0  0  0  0  0  0  0  0  0  0  0
  -10.7336    4.0060  -18.2786 C   0  0  0  0  0  0  0  0  0  0  0  0
   -8.3588    4.3190  -15.9870 C   0  0  0  0  0  0  0  0  0  0  0  0
   -7.2873    4.9571  -15.3514 C   0  0  0  0  0  0  0  0  0  0  0  0
   -7.3864    5.4432  -13.9688 C   0  0  0  0  0  0  0  0  0  0  0  0
   -7.0354    6.5356  -13.7581 O   0  0  0  0  0  0  0  0  0  0  0  0
   -7.8725    4.3453  -13.0013 N   0  0  0  0  0  0  0  0  0  0  0  0
   -7.9365    4.3293  -11.6173 C   0  0  0  0  0  0  0  0  0  0  0  0
   -7.3138    5.3760  -10.8993 C   0  0  0  0  0  0  0  0  0  0  0  0
   -7.2676    5.3690   -9.5122 C   0  0  0  0  0  0  0  0  0  0  0  0
   -7.8945    4.3187   -8.8903 C   0  0  0  0  0  0  0  0  0  0  0  0
   -8.5599    3.3223   -9.5788 C   0  0  0  0  0  0  0  0  0  0  0  0
   -8.5696    3.2750  -10.9569 C   0  0  0  0  0  0  0  0  0  0  0  0
   -9.2161    2.4827   -8.5819 C   0  0  0  0  0  0  0  0  0  0  0  0
   -9.8668    1.4941   -8.8522 O   0  0  0  0  0  0  0  0  0  0  0  0
   -8.9495    3.0601   -7.3679 N   0  0  0  0  0  0  0  0  0  0  0  0
   -9.3519    2.4660   -6.1237 C   0  0  0  0  0  0  0  0  0  0  0  0
   -9.3425    3.4827   -5.0151 C   0  0  0  0  0  0  0  0  0  0  0  0
  -10.5565    3.7729   -4.1865 C   0  0  0  0  0  0  0  0  0  0  0  0
  -10.0981    4.7877   -5.1796 C   0  0  0  0  0  0  0  0  0  0  0  0
   -8.0155    4.0488   -7.4752 C   0  0  0  0  0  0  0  0  0  0  0  0
   -7.3445    4.6304   -6.6389 O   0  0  0  0  0  0  0  0  0  0  0  0
   -6.1314    5.2539  -16.0917 C   0  0  0  0  0  0  0  0  0  0  0  0
  1  2  1  0
  2  3  2  0
  3  4  1  0
  4  5  1  0
  5  6  1  0
  6  7  1  0
  4  8  1  0
  8  9  2  0
  9 10  1  0
 10 11  1  0
 11 12  1  0
 12 13  1  0
 10 14  2  0
 14 15  1  0
 15 16  1  0
 16 17  2  0
 16 18  1  0
 18 19  1  0
 19 20  2  0
 20 21  1  0
 21 22  2  0
 22 23  1  0
 23 24  2  0
 23 25  1  0
 25 26  2  0
 25 27  1  0
 27 28  1  0
 28 29  1  0
 29 30  1  0
 30 31  1  0
 27 32  1  0
 32 33  2  0
 15 34  2  0
 34  2  1  0
 34  8  1  0
 13 11  1  0
 24 19  1  0
 31 29  1  0
 32 22  1  0
M  END
>  <name>  (846) 
P125824

>  <alias>  (846) 
None

>  <smina_score_min>  (846) 
-9.071

>  <exports>  (846) 
['/opt/xchem-fragalysis-2/maxwin/BulkDock/OUTPUTS/openbind_xx01zvns2b_c2_elabs_1LOUTNY.sdf', '/opt/xchem-fragalysis-2/maxwin/BulkDock/OUTPUTS/openbind_xx01zvns2b_c2_elabs_1LSYIIV.sdf']

>  <tags>  (846) 
syndirella_placed,openbind_xx01zvns2b_c2_elabs,openbind_xx01zvns2b_c2_elabs_scored_6.2plus,syndirella_product,openbind_xx01zvns2b_c2_elabs_scored,openbind_xx01zvns2b_c2_elabs_scored_top80percent,BulkDock Fragalysis export

>  <subsites>  (846) 
1 - Z4590/B/203/1

>  <smiles>  (846) 
Cc1nn(CCO)c2nc(C3CC3)cc(C(=O)Nc3ccc4c(c3)C(=O)N(CC3CC3)C4=O)c12

>  <HIPPO Pose ID>  (846) 
125824

>  <energy_score>  (846) 
-47.385844

>  <inchikey>  (846) 
KRFROQCNFGDAPT-UHFFFAOYSA-N

>  <gnina_score_min>  (846) 
6.509

>  <gnina_score>  (846) 
6.482

>  <ref_mols>  (846) 
Z3559a

>  <HIPPO Compound ID>  (846) 
187946

>  <distance_score>  (846) 
0.720069

>  <rmsd(smina/fragmenstein)>  (846) 
0.79

>  <ref_pdb>  (846) 
Z3559a

>  <inspiration_score>  (846) 
None

$$$$
P125826
     RDKit          3D

 34 39  0  0  0  0  0  0  0  0999 V2000
   -3.9915    6.3106  -14.7834 C   0  0  0  0  0  0  0  0  0  0  0  0
   -4.7090    5.8286  -15.9901 C   0  0  0  0  0  0  0  0  0  0  0  0
   -4.1069    5.8996  -17.1893 N   0  0  0  0  0  0  0  0  0  0  0  0
   -5.0296    5.3951  -18.0382 N   0  0  0  0  0  0  0  0  0  0  0  0
   -4.7853    5.4052  -19.4574 C   0  0  0  0  0  0  0  0  0  0  0  0
   -6.1729    4.9786  -17.4232 C   0  0  0  0  0  0  0  0  0  0  0  0
   -7.2479    4.4406  -18.0163 N   0  0  0  0  0  0  0  0  0  0  0  0
   -8.3014    4.1928  -17.2044 C   0  0  0  0  0  0  0  0  0  0  0  0
   -9.5897    3.7247  -17.8317 C   0  0  0  0  0  0  0  0  0  0  0  0
   -9.5885    2.4977  -18.7031 C   0  0  0  0  0  0  0  0  0  0  0  0
   -9.8088    3.8499  -19.3155 C   0  0  0  0  0  0  0  0  0  0  0  0
   -8.2631    4.4390  -15.8339 C   0  0  0  0  0  0  0  0  0  0  0  0
   -7.1160    4.9976  -15.2635 C   0  0  0  0  0  0  0  0  0  0  0  0
   -7.1548    5.4981  -13.8852 C   0  0  0  0  0  0  0  0  0  0  0  0
   -6.8160    6.6005  -13.7047 O   0  0  0  0  0  0  0  0  0  0  0  0
   -7.7428    4.4581  -12.9057 N   0  0  0  0  0  0  0  0  0  0  0  0
   -7.9407    4.5235  -11.5334 C   0  0  0  0  0  0  0  0  0  0  0  0
   -7.7474    5.7655  -10.8949 C   0  0  0  0  0  0  0  0  0  0  0  0
   -7.9485    5.9066   -9.5348 C   0  0  0  0  0  0  0  0  0  0  0  0
   -8.3344    4.7768   -8.8577 C   0  0  0  0  0  0  0  0  0  0  0  0
   -8.5312    3.5269   -9.4497 C   0  0  0  0  0  0  0  0  0  0  0  0
   -8.3430    3.3863  -10.8140 C   0  0  0  0  0  0  0  0  0  0  0  0
   -8.9569    2.5433   -8.4023 C   0  0  0  0  0  0  0  0  0  0  0  0
   -8.8691    3.3584   -7.1898 N   0  0  0  0  0  0  0  0  0  0  0  0
   -9.1222    2.8563   -5.8636 C   0  0  1  0  0  0  0  0  0  0  0  0
   -8.1306    3.3706   -4.8173 C   0  0  0  0  0  0  0  0  0  0  0  0
   -8.9927    3.8179   -3.6845 C   0  0  0  0  0  0  0  0  0  0  0  0
   -8.5995    4.0933   -2.5611 O   0  0  0  0  0  0  0  0  0  0  0  0
  -10.2773    3.8612   -4.0965 N   0  0  0  0  0  0  0  0  0  0  0  0
  -10.4587    3.3207   -5.3263 C   0  0  0  0  0  0  0  0  0  0  0  0
  -11.5402    3.2447   -5.8827 O   0  0  0  0  0  0  0  0  0  0  0  0
   -8.6091    4.6807   -7.4391 C   0  0  0  0  0  0  0  0  0  0  0  0
   -8.5949    5.6156   -6.6606 O   0  0  0  0  0  0  0  0  0  0  0  0
   -6.0162    5.2746  -16.0836 C   0  0  0  0  0  0  0  0  0  0  0  0
  1  2  1  0
  2  3  2  0
  3  4  1  0
  4  5  1  0
  4  6  1  0
  6  7  2  0
  7  8  1  0
  8  9  1  0
  9 10  1  0
 10 11  1  0
  8 12  2  0
 12 13  1  0
 13 14  1  0
 14 15  2  0
 14 16  1  0
 16 17  1  0
 17 18  2  0
 18 19  1  0
 19 20  2  0
 20 21  1  0
 21 22  2  0
 21 23  1  0
 23 24  1  0
 25 24  1  6
 25 26  1  0
 26 27  1  0
 27 28  2  0
 27 29  1  0
 29 30  1  0
 30 31  2  0
 24 32  1  0
 32 33  2  0
 13 34  2  0
 34  2  1  0
 34  6  1  0
 11  9  1  0
 22 17  1  0
 30 25  1  0
 32 20  1  0
M  END
>  <name>  (847) 
P125826

>  <alias>  (847) 
None

>  <smina_score_min>  (847) 
-9.242

>  <exports>  (847) 
['/opt/xchem-fragalysis-2/maxwin/BulkDock/OUTPUTS/openbind_xx01zvns2b_c2_elabs_1LOUTNY.sdf', '/opt/xchem-fragalysis-2/maxwin/BulkDock/OUTPUTS/openbind_xx01zvns2b_c2_elabs_1LSYIIV.sdf']

>  <tags>  (847) 
syndirella_placed,openbind_xx01zvns2b_c2_elabs,openbind_xx01zvns2b_c2_elabs_scored_6.2plus,syndirella_product,openbind_xx01zvns2b_c2_elabs_scored,openbind_xx01zvns2b_c2_elabs_scored_top80percent,BulkDock Fragalysis export

>  <subsites>  (847) 
1 - Z4590/B/203/1

>  <smiles>  (847) 
Cc1nn(C)c2nc(C3CC3)cc(C(=O)Nc3ccc4c(c3)CN([C@H]3CC(=O)NC3=O)C4=O)c12

>  <HIPPO Pose ID>  (847) 
125826

>  <energy_score>  (847) 
-54.07114

>  <inchikey>  (847) 
VTJDORDZYZQDCN-SFHVURJKSA-N

>  <gnina_score_min>  (847) 
6.253

>  <gnina_score>  (847) 
6.369

>  <ref_mols>  (847) 
Z3559a

>  <HIPPO Compound ID>  (847) 
187948

>  <distance_score>  (847) 
0.628695

>  <rmsd(smina/fragmenstein)>  (847) 
0.399

>  <ref_pdb>  (847) 
Z3559a

>  <inspiration_score>  (847) 
None

$$$$
P125828
     RDKit          3D

 34 39  0  0  0  0  0  0  0  0999 V2000
   -2.5875    5.2448  -19.7047 C   0  0  0  0  0  0  0  0  0  0  0  0
   -4.0126    5.3130  -20.2332 C   0  0  0  0  0  0  0  0  0  0  0  0
   -5.0080    6.0902  -19.3617 C   0  0  2  0  0  0  0  0  0  0  0  0
   -4.7845    7.6062  -19.4627 C   0  0  0  0  0  0  0  0  0  0  0  0
   -5.0970    5.6481  -17.9733 N   0  0  0  0  0  0  0  0  0  0  0  0
   -4.2512    6.1512  -17.0353 N   0  0  0  0  0  0  0  0  0  0  0  0
   -4.8872    5.9062  -15.8841 C   0  0  0  0  0  0  0  0  0  0  0  0
   -6.0995    5.2063  -16.0628 C   0  0  0  0  0  0  0  0  0  0  0  0
   -7.2041    4.8040  -15.2935 C   0  0  0  0  0  0  0  0  0  0  0  0
   -7.3379    5.3931  -13.9514 C   0  0  0  0  0  0  0  0  0  0  0  0
   -7.0819    6.5341  -13.9007 O   0  0  0  0  0  0  0  0  0  0  0  0
   -7.8238    4.4218  -12.8439 N   0  0  0  0  0  0  0  0  0  0  0  0
   -7.9983    4.6244  -11.4708 C   0  0  0  0  0  0  0  0  0  0  0  0
   -7.8343    5.9514  -11.0311 C   0  0  0  0  0  0  0  0  0  0  0  0
   -7.9990    6.3043   -9.7112 C   0  0  0  0  0  0  0  0  0  0  0  0
   -8.3388    5.3063   -8.8328 C   0  0  0  0  0  0  0  0  0  0  0  0
   -8.4969    3.9684   -9.2093 C   0  0  0  0  0  0  0  0  0  0  0  0
   -8.3276    3.6078  -10.5516 C   0  0  0  0  0  0  0  0  0  0  0  0
   -8.8718    3.1672   -7.9753 C   0  0  0  0  0  0  0  0  0  0  0  0
   -9.1026    4.2277   -6.9430 N   0  0  0  0  0  0  0  0  0  0  0  0
   -8.8420    4.0663   -5.5844 C   0  0  0  0  0  0  0  0  0  0  0  0
   -7.5645    4.2662   -5.0408 C   0  0  0  0  0  0  0  0  0  0  0  0
   -7.3634    4.4461   -3.6699 C   0  0  0  0  0  0  0  0  0  0  0  0
   -8.4535    4.4303   -2.8114 C   0  0  0  0  0  0  0  0  0  0  0  0
   -9.7269    4.2191   -3.3299 C   0  0  0  0  0  0  0  0  0  0  0  0
   -9.9167    4.0079   -4.6997 C   0  0  0  0  0  0  0  0  0  0  0  0
   -8.5900    5.5219   -7.3941 C   0  0  0  0  0  0  0  0  0  0  0  0
   -8.2631    4.1554  -15.9363 C   0  0  0  0  0  0  0  0  0  0  0  0
   -8.1904    3.9432  -17.3180 C   0  0  0  0  0  0  0  0  0  0  0  0
   -9.3156    3.2982  -18.0882 C   0  0  0  0  0  0  0  0  0  0  0  0
  -10.6790    3.9227  -18.2229 C   0  0  0  0  0  0  0  0  0  0  0  0
   -9.7262    4.0080  -19.3622 C   0  0  0  0  0  0  0  0  0  0  0  0
   -7.1431    4.3508  -18.0769 N   0  0  0  0  0  0  0  0  0  0  0  0
   -6.1648    4.9836  -17.4211 C   0  0  0  0  0  0  0  0  0  0  0  0
  1  2  1  0
  2  3  1  0
  3  4  1  1
  3  5  1  0
  5  6  1  0
  6  7  2  0
  7  8  1  0
  8  9  2  0
  9 10  1  0
 10 11  2  0
 10 12  1  0
 12 13  1  0
 13 14  2  0
 14 15  1  0
 15 16  2  0
 16 17  1  0
 17 18  2  0
 17 19  1  0
 19 20  1  0
 20 21  1  0
 21 22  2  0
 22 23  1  0
 23 24  2  0
 24 25  1  0
 25 26  2  0
 20 27  1  0
  9 28  1  0
 28 29  2  0
 29 30  1  0
 30 31  1  0
 31 32  1  0
 29 33  1  0
 33 34  2  0
 34  5  1  0
 34  8  1  0
 18 13  1  0
 26 21  1  0
 32 30  1  0
 27 16  1  0
M  END
>  <name>  (848) 
P125828

>  <alias>  (848) 
None

>  <smina_score_min>  (848) 
-9.429

>  <exports>  (848) 
['/opt/xchem-fragalysis-2/maxwin/BulkDock/OUTPUTS/openbind_xx01zvns2b_c2_elabs_1LOUTNY.sdf', '/opt/xchem-fragalysis-2/maxwin/BulkDock/OUTPUTS/openbind_xx01zvns2b_c2_elabs_1LSYIIV.sdf']

>  <tags>  (848) 
syndirella_placed,openbind_xx01zvns2b_c2_elabs,openbind_xx01zvns2b_c2_elabs_scored_6.2plus,syndirella_product,openbind_xx01zvns2b_c2_elabs_scored,openbind_xx01zvns2b_c2_elabs_scored_top80percent,BulkDock Fragalysis export

>  <subsites>  (848) 
1 - Z4590/B/203/1

>  <smiles>  (848) 
CC[C@H](C)n1ncc2c(C(=O)Nc3ccc4c(c3)CN(c3ccccc3)C4)cc(C3CC3)nc21

>  <HIPPO Pose ID>  (848) 
125828

>  <energy_score>  (848) 
-27.902025

>  <inchikey>  (848) 
IRRTYCSBUQDFLS-SFHVURJKSA-N

>  <gnina_score_min>  (848) 
6.583

>  <gnina_score>  (848) 
6.489

>  <ref_mols>  (848) 
Z3559a

>  <HIPPO Compound ID>  (848) 
187951

>  <distance_score>  (848) 
0.991852

>  <rmsd(smina/fragmenstein)>  (848) 
0.72

>  <ref_pdb>  (848) 
Z3559a

>  <inspiration_score>  (848) 
None

$$$$
P125832
     RDKit          3D

 34 38  0  0  0  0  0  0  0  0999 V2000
   -3.4758    6.0826  -14.9174 C   0  0  0  0  0  0  0  0  0  0  0  0
   -4.3417    5.7082  -16.0644 C   0  0  0  0  0  0  0  0  0  0  0  0
   -3.8401    5.7823  -17.3081 N   0  0  0  0  0  0  0  0  0  0  0  0
   -4.8584    5.3671  -18.0906 N   0  0  0  0  0  0  0  0  0  0  0  0
   -4.7250    5.3832  -19.5252 C   0  0  0  0  0  0  0  0  0  0  0  0
   -5.9734    5.0104  -17.3922 C   0  0  0  0  0  0  0  0  0  0  0  0
   -7.1089    4.5301  -17.9150 N   0  0  0  0  0  0  0  0  0  0  0  0
   -8.1276    4.3400  -17.0452 C   0  0  0  0  0  0  0  0  0  0  0  0
   -9.4417    3.8412  -17.6459 C   0  0  0  0  0  0  0  0  0  0  0  0
   -9.7575    4.0615  -19.1056 C   0  0  0  0  0  0  0  0  0  0  0  0
   -9.4215    2.6847  -18.6208 C   0  0  0  0  0  0  0  0  0  0  0  0
   -7.9810    4.6407  -15.6778 C   0  0  0  0  0  0  0  0  0  0  0  0
   -9.3668    4.7134  -14.6590 Cl  0  0  0  0  0  0  0  0  0  0  0  0
   -6.7369    5.0354  -15.1520 C   0  0  0  0  0  0  0  0  0  0  0  0
   -6.5574    5.3833  -13.7217 C   0  0  0  0  0  0  0  0  0  0  0  0
   -6.0200    6.3926  -13.4776 O   0  0  0  0  0  0  0  0  0  0  0  0
   -7.2108    4.3379  -12.7784 N   0  0  0  0  0  0  0  0  0  0  0  0
   -7.4132    4.3649  -11.4034 C   0  0  0  0  0  0  0  0  0  0  0  0
   -6.9378    5.4653  -10.6694 C   0  0  0  0  0  0  0  0  0  0  0  0
   -7.1818    5.5785   -9.3092 C   0  0  0  0  0  0  0  0  0  0  0  0
   -7.9191    4.5810   -8.7125 C   0  0  0  0  0  0  0  0  0  0  0  0
   -8.4085    3.4931   -9.4288 C   0  0  0  0  0  0  0  0  0  0  0  0
   -8.1605    3.3510  -10.7824 C   0  0  0  0  0  0  0  0  0  0  0  0
   -9.2173    2.6855   -8.4918 C   0  0  0  0  0  0  0  0  0  0  0  0
   -9.8003    1.6603   -8.7818 O   0  0  0  0  0  0  0  0  0  0  0  0
   -9.2103    3.3679   -7.2714 N   0  0  0  0  0  0  0  0  0  0  0  0
   -9.6798    2.8192   -6.0175 C   0  0  0  0  0  0  0  0  0  0  0  0
  -10.3195    3.8347   -5.0449 C   0  0  0  0  0  0  0  0  0  0  0  0
   -9.4383    4.6175   -4.0214 C   0  0  0  0  0  0  0  0  0  0  0  0
   -8.2811    3.8176   -3.4579 C   0  0  0  0  0  0  0  0  0  0  0  0
   -8.9385    5.9793   -4.5086 C   0  0  0  0  0  0  0  0  0  0  0  0
  -10.2462    4.9526   -2.8794 O   0  0  0  0  0  0  0  0  0  0  0  0
   -8.3346    4.5011   -7.3000 C   0  0  0  0  0  0  0  0  0  0  0  0
   -5.6949    5.2622  -16.0611 C   0  0  0  0  0  0  0  0  0  0  0  0
  1  2  1  0
  2  3  2  0
  3  4  1  0
  4  5  1  0
  4  6  1  0
  6  7  2  0
  7  8  1  0
  8  9  1  0
  9 10  1  0
 10 11  1  0
  8 12  2  0
 12 13  1  0
 12 14  1  0
 14 15  1  0
 15 16  2  0
 15 17  1  0
 17 18  1  0
 18 19  2  0
 19 20  1  0
 20 21  2  0
 21 22  1  0
 22 23  2  0
 22 24  1  0
 24 25  2  0
 24 26  1  0
 26 27  1  0
 27 28  1  0
 28 29  1  0
 29 30  1  0
 29 31  1  0
 29 32  1  0
 26 33  1  0
 14 34  2  0
 34  2  1  0
 34  6  1  0
 11  9  1  0
 23 18  1  0
 33 21  1  0
M  END
>  <name>  (849) 
P125832

>  <alias>  (849) 
None

>  <smina_score_min>  (849) 
-8.505

>  <exports>  (849) 
['/opt/xchem-fragalysis-2/maxwin/BulkDock/OUTPUTS/openbind_xx01zvns2b_c2_elabs_1LOUTNY.sdf', '/opt/xchem-fragalysis-2/maxwin/BulkDock/OUTPUTS/openbind_xx01zvns2b_c2_elabs_1LSYIIV.sdf']

>  <tags>  (849) 
syndirella_placed,openbind_xx01zvns2b_c2_elabs,openbind_xx01zvns2b_c2_elabs_scored_6.2plus,syndirella_product,openbind_xx01zvns2b_c2_elabs_scored,openbind_xx01zvns2b_c2_elabs_scored_top80percent,BulkDock Fragalysis export

>  <subsites>  (849) 
1 - Z4590/B/203/1

>  <smiles>  (849) 
Cc1nn(C)c2nc(C3CC3)c(Cl)c(C(=O)Nc3ccc4c(c3)C(=O)N(CCC(C)(C)O)C4)c12

>  <HIPPO Pose ID>  (849) 
125832

>  <energy_score>  (849) 
-44.146759

>  <inchikey>  (849) 
LXJBOYHGNRIECO-UHFFFAOYSA-N

>  <gnina_score_min>  (849) 
6.476

>  <gnina_score>  (849) 
6.624

>  <ref_mols>  (849) 
Z3559a

>  <HIPPO Compound ID>  (849) 
187955

>  <distance_score>  (849) 
0.761706

>  <rmsd(smina/fragmenstein)>  (849) 
0.368

>  <ref_pdb>  (849) 
Z3559a

>  <inspiration_score>  (849) 
None

$$$$
P125833
     RDKit          3D

 34 38  0  0  0  0  0  0  0  0999 V2000
   -5.3064    7.6531  -19.4536 C   0  0  0  0  0  0  0  0  0  0  0  0
   -4.0721    6.8025  -19.2101 C   0  0  0  0  0  0  0  0  0  0  0  0
   -4.4120    5.4108  -18.6785 C   0  0  0  0  0  0  0  0  0  0  0  0
   -5.0303    5.4066  -17.3674 N   0  0  0  0  0  0  0  0  0  0  0  0
   -4.3929    5.9602  -16.3056 N   0  0  0  0  0  0  0  0  0  0  0  0
   -5.2742    5.8138  -15.3073 C   0  0  0  0  0  0  0  0  0  0  0  0
   -6.4434    5.1311  -15.7011 C   0  0  0  0  0  0  0  0  0  0  0  0
   -7.6760    4.7387  -15.1741 C   0  0  0  0  0  0  0  0  0  0  0  0
   -8.1612    5.2052  -13.8781 C   0  0  0  0  0  0  0  0  0  0  0  0
   -9.0873    5.9180  -13.9047 O   0  0  0  0  0  0  0  0  0  0  0  0
   -7.3152    4.7057  -12.6848 N   0  0  0  0  0  0  0  0  0  0  0  0
   -7.4825    4.8950  -11.3175 C   0  0  0  0  0  0  0  0  0  0  0  0
   -8.3756    5.9045  -10.9292 C   0  0  0  0  0  0  0  0  0  0  0  0
   -8.6832    6.1427   -9.5990 C   0  0  0  0  0  0  0  0  0  0  0  0
   -8.0917    5.3515   -8.6519 C   0  0  0  0  0  0  0  0  0  0  0  0
   -7.0958    4.4639   -9.0203 C   0  0  0  0  0  0  0  0  0  0  0  0
   -6.7834    4.1817  -10.3486 C   0  0  0  0  0  0  0  0  0  0  0  0
   -6.2656    4.3304   -7.8115 C   0  0  0  0  0  0  0  0  0  0  0  0
   -5.0668    4.0906   -7.8480 O   0  0  0  0  0  0  0  0  0  0  0  0
   -6.9755    4.8689   -6.7021 N   0  0  0  0  0  0  0  0  0  0  0  0
   -6.1935    5.5997   -5.7051 C   0  0  0  0  0  0  0  0  0  0  0  0
   -6.9618    6.1970   -4.5165 C   0  0  0  0  0  0  0  0  0  0  0  0
   -7.3735    5.2528   -3.3738 C   0  0  0  0  0  0  0  0  0  0  0  0
   -6.1584    4.7391   -2.6012 C   0  0  0  0  0  0  0  0  0  0  0  0
   -8.2680    4.1023   -3.8287 C   0  0  0  0  0  0  0  0  0  0  0  0
   -8.1275    6.0393   -2.4347 O   0  0  0  0  0  0  0  0  0  0  0  0
   -8.2160    5.4449   -7.1815 C   0  0  0  0  0  0  0  0  0  0  0  0
   -8.5971    4.1107  -16.0093 C   0  0  0  0  0  0  0  0  0  0  0  0
   -8.2835    3.8906  -17.3425 C   0  0  0  0  0  0  0  0  0  0  0  0
   -9.3090    3.2837  -18.2595 C   0  0  0  0  0  0  0  0  0  0  0  0
  -10.6721    3.9167  -18.4292 C   0  0  0  0  0  0  0  0  0  0  0  0
   -9.6468    4.0586  -19.5015 C   0  0  0  0  0  0  0  0  0  0  0  0
   -7.0992    4.2601  -17.8860 N   0  0  0  0  0  0  0  0  0  0  0  0
   -6.2491    4.8739  -17.0476 C   0  0  0  0  0  0  0  0  0  0  0  0
  1  2  1  0
  2  3  1  0
  3  4  1  0
  4  5  1  0
  5  6  2  0
  6  7  1  0
  7  8  2  0
  8  9  1  0
  9 10  2  0
  9 11  1  0
 11 12  1  0
 12 13  2  0
 13 14  1  0
 14 15  2  0
 15 16  1  0
 16 17  2  0
 16 18  1  0
 18 19  2  0
 18 20  1  0
 20 21  1  0
 21 22  1  0
 22 23  1  0
 23 24  1  0
 23 25  1  0
 23 26  1  0
 20 27  1  0
  8 28  1  0
 28 29  2  0
 29 30  1  0
 30 31  1  0
 31 32  1  0
 29 33  1  0
 33 34  2  0
 34  4  1  0
 34  7  1  0
 17 12  1  0
 32 30  1  0
 27 15  1  0
M  END
>  <name>  (850) 
P125833

>  <alias>  (850) 
None

>  <smina_score_min>  (850) 
-7.077

>  <exports>  (850) 
['/opt/xchem-fragalysis-2/maxwin/BulkDock/OUTPUTS/openbind_xx01zvns2b_c2_elabs_1LOUTNY.sdf', '/opt/xchem-fragalysis-2/maxwin/BulkDock/OUTPUTS/openbind_xx01zvns2b_c2_elabs_1LSYIIV.sdf']

>  <tags>  (850) 
syndirella_placed,openbind_xx01zvns2b_c2_elabs,openbind_xx01zvns2b_c2_elabs_scored_6.2plus,syndirella_product,openbind_xx01zvns2b_c2_elabs_scored,openbind_xx01zvns2b_c2_elabs_scored_top80percent,BulkDock Fragalysis export

>  <subsites>  (850) 
1 - Z4590/B/203/1

>  <smiles>  (850) 
CCCn1ncc2c(C(=O)Nc3ccc4c(c3)C(=O)N(CCC(C)(C)O)C4)cc(C3CC3)nc21

>  <HIPPO Pose ID>  (850) 
125833

>  <energy_score>  (850) 
-35.937373

>  <inchikey>  (850) 
VXFHRDGVBXWBKJ-UHFFFAOYSA-N

>  <gnina_score_min>  (850) 
6.226

>  <gnina_score>  (850) 
6.278

>  <ref_mols>  (850) 
Z3559a

>  <HIPPO Compound ID>  (850) 
187958

>  <distance_score>  (850) 
1.574078

>  <rmsd(smina/fragmenstein)>  (850) 
0.887

>  <ref_pdb>  (850) 
Z3559a

>  <inspiration_score>  (850) 
None

$$$$
P125834
     RDKit          3D

 34 38  0  0  0  0  0  0  0  0999 V2000
   -5.5179    7.2077  -19.7009 C   0  0  0  0  0  0  0  0  0  0  0  0
   -4.7170    5.9356  -19.4351 C   0  0  0  0  0  0  0  0  0  0  0  0
   -4.9471    4.9169  -20.5481 C   0  0  0  0  0  0  0  0  0  0  0  0
   -4.9546    5.4817  -18.0684 N   0  0  0  0  0  0  0  0  0  0  0  0
   -4.1067    5.9253  -17.0987 N   0  0  0  0  0  0  0  0  0  0  0  0
   -4.8168    5.7749  -15.9759 C   0  0  0  0  0  0  0  0  0  0  0  0
   -6.0753    5.1779  -16.1972 C   0  0  0  0  0  0  0  0  0  0  0  0
   -7.2230    4.8499  -15.4578 C   0  0  0  0  0  0  0  0  0  0  0  0
   -7.3027    5.3533  -14.0785 C   0  0  0  0  0  0  0  0  0  0  0  0
   -6.8715    6.4261  -13.9068 O   0  0  0  0  0  0  0  0  0  0  0  0
   -7.8788    4.3313  -13.0708 N   0  0  0  0  0  0  0  0  0  0  0  0
   -7.9543    4.3758  -11.6837 C   0  0  0  0  0  0  0  0  0  0  0  0
   -7.3286    5.4684  -11.0450 C   0  0  0  0  0  0  0  0  0  0  0  0
   -7.2570    5.5609   -9.6684 C   0  0  0  0  0  0  0  0  0  0  0  0
   -7.8537    4.5565   -8.9509 C   0  0  0  0  0  0  0  0  0  0  0  0
   -8.5347    3.5061   -9.5610 C   0  0  0  0  0  0  0  0  0  0  0  0
   -8.5762    3.3697  -10.9381 C   0  0  0  0  0  0  0  0  0  0  0  0
   -9.1527    2.7175   -8.4759 C   0  0  0  0  0  0  0  0  0  0  0  0
   -9.8104    1.7097   -8.6348 O   0  0  0  0  0  0  0  0  0  0  0  0
   -8.8559    3.3847   -7.2756 N   0  0  0  0  0  0  0  0  0  0  0  0
   -8.9813    2.7331   -5.9911 C   0  0  0  0  0  0  0  0  0  0  0  0
   -8.6082    3.6115   -4.7779 C   0  0  0  0  0  0  0  0  0  0  0  0
   -9.6468    4.6301   -4.2820 C   0  0  0  0  0  0  0  0  0  0  0  0
   -9.1358    5.2655   -2.9803 C   0  0  0  0  0  0  0  0  0  0  0  0
   -9.9825    5.7403   -5.2720 C   0  0  0  0  0  0  0  0  0  0  0  0
  -10.8440    3.9439   -3.9514 O   0  0  0  0  0  0  0  0  0  0  0  0
   -7.8620    4.4017   -7.4890 C   0  0  0  0  0  0  0  0  0  0  0  0
   -8.2846    4.2239  -16.1082 C   0  0  0  0  0  0  0  0  0  0  0  0
   -8.1807    3.9776  -17.4785 C   0  0  0  0  0  0  0  0  0  0  0  0
   -9.3076    3.3296  -18.2402 C   0  0  0  0  0  0  0  0  0  0  0  0
  -10.6939    3.9150  -18.2932 C   0  0  0  0  0  0  0  0  0  0  0  0
   -9.7843    4.0807  -19.4601 C   0  0  0  0  0  0  0  0  0  0  0  0
   -7.1041    4.3419  -18.2223 N   0  0  0  0  0  0  0  0  0  0  0  0
   -6.1049    4.9299  -17.5533 C   0  0  0  0  0  0  0  0  0  0  0  0
  1  2  1  0
  2  3  1  0
  2  4  1  0
  4  5  1  0
  5  6  2  0
  6  7  1  0
  7  8  2  0
  8  9  1  0
  9 10  2  0
  9 11  1  0
 11 12  1  0
 12 13  2  0
 13 14  1  0
 14 15  2  0
 15 16  1  0
 16 17  2  0
 16 18  1  0
 18 19  2  0
 18 20  1  0
 20 21  1  0
 21 22  1  0
 22 23  1  0
 23 24  1  0
 23 25  1  0
 23 26  1  0
 20 27  1  0
  8 28  1  0
 28 29  2  0
 29 30  1  0
 30 31  1  0
 31 32  1  0
 29 33  1  0
 33 34  2  0
 34  4  1  0
 34  7  1  0
 17 12  1  0
 32 30  1  0
 27 15  1  0
M  END
>  <name>  (851) 
P125834

>  <alias>  (851) 
None

>  <smina_score_min>  (851) 
-8.798

>  <exports>  (851) 
['/opt/xchem-fragalysis-2/maxwin/BulkDock/OUTPUTS/openbind_xx01zvns2b_c2_elabs_1LOUTNY.sdf', '/opt/xchem-fragalysis-2/maxwin/BulkDock/OUTPUTS/openbind_xx01zvns2b_c2_elabs_1LSYIIV.sdf']

>  <tags>  (851) 
syndirella_placed,openbind_xx01zvns2b_c2_elabs,openbind_xx01zvns2b_c2_elabs_scored_6.2plus,syndirella_product,openbind_xx01zvns2b_c2_elabs_scored,openbind_xx01zvns2b_c2_elabs_scored_top80percent,BulkDock Fragalysis export

>  <subsites>  (851) 
1 - Z4590/B/203/1

>  <smiles>  (851) 
CC(C)n1ncc2c(C(=O)Nc3ccc4c(c3)C(=O)N(CCC(C)(C)O)C4)cc(C3CC3)nc21

>  <HIPPO Pose ID>  (851) 
125834

>  <energy_score>  (851) 
-46.105405

>  <inchikey>  (851) 
DUNOTJQMVCKWEN-UHFFFAOYSA-N

>  <gnina_score_min>  (851) 
6.513

>  <gnina_score>  (851) 
6.519

>  <ref_mols>  (851) 
Z3559a

>  <HIPPO Compound ID>  (851) 
187961

>  <distance_score>  (851) 
0.813786

>  <rmsd(smina/fragmenstein)>  (851) 
0.537

>  <ref_pdb>  (851) 
Z3559a

>  <inspiration_score>  (851) 
None

$$$$
P125835
     RDKit          3D

 34 39  0  0  0  0  0  0  0  0999 V2000
   -3.6890    6.1967  -14.6030 C   0  0  0  0  0  0  0  0  0  0  0  0
   -4.3391    5.9360  -15.9125 C   0  0  0  0  0  0  0  0  0  0  0  0
   -3.6872    6.2370  -17.0485 N   0  0  0  0  0  0  0  0  0  0  0  0
   -4.5209    5.8037  -18.0187 N   0  0  0  0  0  0  0  0  0  0  0  0
   -4.1340    5.8468  -19.4098 C   0  0  0  0  0  0  0  0  0  0  0  0
   -2.6642    5.5083  -19.6379 C   0  0  0  0  0  0  0  0  0  0  0  0
   -2.3651    5.4208  -21.0317 O   0  0  0  0  0  0  0  0  0  0  0  0
   -5.7138    5.3524  -17.5446 C   0  0  0  0  0  0  0  0  0  0  0  0
   -6.7386    4.9242  -18.2829 N   0  0  0  0  0  0  0  0  0  0  0  0
   -7.7957    4.4320  -17.6069 C   0  0  0  0  0  0  0  0  0  0  0  0
   -8.8800    3.9109  -18.5208 C   0  0  0  0  0  0  0  0  0  0  0  0
   -9.4657    2.5489  -18.2939 C   0  0  0  0  0  0  0  0  0  0  0  0
  -10.3185    3.7817  -18.1403 C   0  0  0  0  0  0  0  0  0  0  0  0
   -7.8300    4.4053  -16.2034 C   0  0  0  0  0  0  0  0  0  0  0  0
   -6.7244    4.8832  -15.4745 C   0  0  0  0  0  0  0  0  0  0  0  0
   -6.5970    4.6981  -14.0208 C   0  0  0  0  0  0  0  0  0  0  0  0
   -5.7014    4.0656  -13.6396 O   0  0  0  0  0  0  0  0  0  0  0  0
   -7.7194    5.3903  -13.2507 N   0  0  0  0  0  0  0  0  0  0  0  0
   -8.0240    5.3764  -11.9066 C   0  0  0  0  0  0  0  0  0  0  0  0
   -8.2298    6.5886  -11.2459 C   0  0  0  0  0  0  0  0  0  0  0  0
   -8.2735    6.6121   -9.8553 C   0  0  0  0  0  0  0  0  0  0  0  0
   -8.1931    5.4094   -9.1762 C   0  0  0  0  0  0  0  0  0  0  0  0
   -8.1082    4.1938   -9.8444 C   0  0  0  0  0  0  0  0  0  0  0  0
   -7.9641    4.1617  -11.2143 C   0  0  0  0  0  0  0  0  0  0  0  0
   -8.2419    3.0579   -8.8846 C   0  0  0  0  0  0  0  0  0  0  0  0
   -8.2859    3.7414   -7.5630 N   0  0  0  0  0  0  0  0  0  0  0  0
   -9.1491    3.2652   -6.5853 C   0  0  0  0  0  0  0  0  0  0  0  0
   -9.7418    2.0094   -6.6860 C   0  0  0  0  0  0  0  0  0  0  0  0
  -10.7832    1.6559   -5.8467 C   0  0  0  0  0  0  0  0  0  0  0  0
  -11.2212    2.5205   -4.8635 C   0  0  0  0  0  0  0  0  0  0  0  0
  -10.5104    3.6807   -4.6126 C   0  0  0  0  0  0  0  0  0  0  0  0
   -9.4735    4.0407   -5.4597 C   0  0  0  0  0  0  0  0  0  0  0  0
   -8.2048    5.1982   -7.7063 C   0  0  0  0  0  0  0  0  0  0  0  0
   -5.6242    5.3877  -16.1717 C   0  0  0  0  0  0  0  0  0  0  0  0
  1  2  1  0
  2  3  2  0
  3  4  1  0
  4  5  1  0
  5  6  1  0
  6  7  1  0
  4  8  1  0
  8  9  2  0
  9 10  1  0
 10 11  1  0
 11 12  1  0
 12 13  1  0
 10 14  2  0
 14 15  1  0
 15 16  1  0
 16 17  2  0
 16 18  1  0
 18 19  1  0
 19 20  2  0
 20 21  1  0
 21 22  2  0
 22 23  1  0
 23 24  2  0
 23 25  1  0
 25 26  1  0
 26 27  1  0
 27 28  2  0
 28 29  1  0
 29 30  2  0
 30 31  1  0
 31 32  2  0
 26 33  1  0
 15 34  2  0
 34  2  1  0
 34  8  1  0
 13 11  1  0
 24 19  1  0
 32 27  1  0
 33 22  1  0
M  END
>  <name>  (852) 
P125835

>  <alias>  (852) 
None

>  <smina_score_min>  (852) 
-9.785

>  <exports>  (852) 
['/opt/xchem-fragalysis-2/maxwin/BulkDock/OUTPUTS/openbind_xx01zvns2b_c2_elabs_1LOUTNY.sdf', '/opt/xchem-fragalysis-2/maxwin/BulkDock/OUTPUTS/openbind_xx01zvns2b_c2_elabs_1LSYIIV.sdf']

>  <tags>  (852) 
syndirella_placed,openbind_xx01zvns2b_c2_elabs,openbind_xx01zvns2b_c2_elabs_scored_6.2plus,syndirella_product,openbind_xx01zvns2b_c2_elabs_scored,openbind_xx01zvns2b_c2_elabs_scored_top80percent,BulkDock Fragalysis export

>  <subsites>  (852) 
1 - Z4590/B/203/1

>  <smiles>  (852) 
Cc1nn(CCO)c2nc(C3CC3)cc(C(=O)Nc3ccc4c(c3)CN(c3ccccc3)C4)c12

>  <HIPPO Pose ID>  (852) 
125835

>  <energy_score>  (852) 
-20.515721

>  <inchikey>  (852) 
MHOMENBSFRRXSX-UHFFFAOYSA-N

>  <gnina_score_min>  (852) 
6.444

>  <gnina_score>  (852) 
6.423

>  <ref_mols>  (852) 
Z3559a

>  <HIPPO Compound ID>  (852) 
187964

>  <distance_score>  (852) 
1.244531

>  <rmsd(smina/fragmenstein)>  (852) 
0.733

>  <ref_pdb>  (852) 
Z3559a

>  <inspiration_score>  (852) 
None

$$$$
P125836
     RDKit          3D

 34 38  0  0  0  0  0  0  0  0999 V2000
   -1.4064    2.2302   -9.1717 C   0  0  0  0  0  0  0  0  0  0  0  0
   -2.1900    3.5305   -9.2044 C   0  0  0  0  0  0  0  0  0  0  0  0
   -3.3831    3.3993   -9.9733 O   0  0  0  0  0  0  0  0  0  0  0  0
   -4.4594    2.7948   -9.2453 C   0  0  0  0  0  0  0  0  0  0  0  0
   -5.6486    2.6696  -10.1805 C   0  0  0  0  0  0  0  0  0  0  0  0
   -6.8530    1.8440   -9.6731 C   0  0  0  0  0  0  0  0  0  0  0  0
   -7.9360    2.3368   -8.7362 N   0  0  0  0  0  0  0  0  0  0  0  0
   -7.7864    3.7581   -8.2773 C   0  0  0  0  0  0  0  0  0  0  0  0
   -8.2206    4.5497   -9.4745 C   0  0  0  0  0  0  0  0  0  0  0  0
   -7.7430    5.7530   -9.9467 C   0  0  0  0  0  0  0  0  0  0  0  0
   -7.7724    5.9379  -11.3310 C   0  0  0  0  0  0  0  0  0  0  0  0
   -8.2350    4.9106  -12.1732 C   0  0  0  0  0  0  0  0  0  0  0  0
   -7.9493    4.8758  -13.5242 N   0  0  0  0  0  0  0  0  0  0  0  0
   -7.1609    5.8531  -14.4000 C   0  0  0  0  0  0  0  0  0  0  0  0
   -6.6891    6.8850  -14.1427 O   0  0  0  0  0  0  0  0  0  0  0  0
   -6.9529    5.2884  -15.7516 C   0  0  0  0  0  0  0  0  0  0  0  0
   -7.9947    4.6866  -16.4737 C   0  0  0  0  0  0  0  0  0  0  0  0
   -7.8142    4.3725  -17.8248 C   0  0  0  0  0  0  0  0  0  0  0  0
   -8.8991    3.8069  -18.7076 C   0  0  0  0  0  0  0  0  0  0  0  0
  -10.3467    3.7143  -18.3354 C   0  0  0  0  0  0  0  0  0  0  0  0
   -9.4919    2.4743  -18.3543 C   0  0  0  0  0  0  0  0  0  0  0  0
   -6.6508    4.6098  -18.4691 N   0  0  0  0  0  0  0  0  0  0  0  0
   -5.6768    5.1650  -17.7338 C   0  0  0  0  0  0  0  0  0  0  0  0
   -5.7278    5.4961  -16.3933 C   0  0  0  0  0  0  0  0  0  0  0  0
   -4.4285    5.9875  -16.0948 C   0  0  0  0  0  0  0  0  0  0  0  0
   -3.8660    6.4268  -14.7919 C   0  0  0  0  0  0  0  0  0  0  0  0
   -3.6513    6.0248  -17.1865 N   0  0  0  0  0  0  0  0  0  0  0  0
   -4.4466    5.5587  -18.1752 N   0  0  0  0  0  0  0  0  0  0  0  0
   -3.9062    5.5337  -19.5183 C   0  0  0  0  0  0  0  0  0  0  0  0
   -4.8917    5.5169  -20.6825 C   0  0  0  0  0  0  0  0  0  0  0  0
   -5.4422    4.2164  -20.8940 O   0  0  0  0  0  0  0  0  0  0  0  0
   -8.8457    3.7805  -11.6567 C   0  0  0  0  0  0  0  0  0  0  0  0
   -8.9004    3.6514  -10.2953 C   0  0  0  0  0  0  0  0  0  0  0  0
   -9.1807    2.4125   -9.5189 C   0  0  0  0  0  0  0  0  0  0  0  0
  1  2  1  0
  2  3  1  0
  3  4  1  0
  4  5  1  0
  5  6  1  0
  6  7  1  0
  7  8  1  0
  8  9  1  0
  9 10  2  0
 10 11  1  0
 11 12  2  0
 12 13  1  0
 13 14  1  0
 14 15  2  0
 14 16  1  0
 16 17  2  0
 17 18  1  0
 18 19  1  0
 19 20  1  0
 20 21  1  0
 18 22  2  0
 22 23  1  0
 23 24  2  0
 24 25  1  0
 25 26  1  0
 25 27  2  0
 27 28  1  0
 28 29  1  0
 29 30  1  0
 30 31  1  0
 12 32  1  0
 32 33  2  0
 33 34  1  0
 34  7  1  0
 33  9  1  0
 24 16  1  0
 21 19  1  0
 28 23  1  0
M  END
>  <name>  (853) 
P125836

>  <alias>  (853) 
None

>  <smina_score_min>  (853) 
-7.412

>  <exports>  (853) 
['/opt/xchem-fragalysis-2/maxwin/BulkDock/OUTPUTS/openbind_xx01zvns2b_c2_elabs_1LOUTNY.sdf', '/opt/xchem-fragalysis-2/maxwin/BulkDock/OUTPUTS/openbind_xx01zvns2b_c2_elabs_1LSYIIV.sdf']

>  <tags>  (853) 
syndirella_placed,openbind_xx01zvns2b_c2_elabs,openbind_xx01zvns2b_c2_elabs_scored_6.2plus,syndirella_product,openbind_xx01zvns2b_c2_elabs_scored,openbind_xx01zvns2b_c2_elabs_scored_top80percent,BulkDock Fragalysis export

>  <subsites>  (853) 
1 - Z4590/B/203/1

>  <smiles>  (853) 
CCOCCCN1Cc2ccc(NC(=O)c3cc(C4CC4)nc4c3c(C)nn4CCO)cc2C1

>  <HIPPO Pose ID>  (853) 
125836

>  <energy_score>  (853) 
-13.714274

>  <inchikey>  (853) 
FUDSXZXIPKMGLP-UHFFFAOYSA-N

>  <gnina_score_min>  (853) 
6.553

>  <gnina_score>  (853) 
6.493

>  <ref_mols>  (853) 
Z3559a

>  <HIPPO Compound ID>  (853) 
187965

>  <distance_score>  (853) 
1.131884

>  <rmsd(smina/fragmenstein)>  (853) 
1.635

>  <ref_pdb>  (853) 
Z3559a

>  <inspiration_score>  (853) 
None

$$$$
P125840
     RDKit          3D

 34 38  0  0  0  0  0  0  0  0999 V2000
   -2.8750    6.6796   -3.0997 C   0  0  0  0  0  0  0  0  0  0  0  0
   -3.4089    5.7364   -4.1599 C   0  0  0  0  0  0  0  0  0  0  0  0
   -3.6711    6.4912   -5.3398 O   0  0  0  0  0  0  0  0  0  0  0  0
   -4.1526    5.6994   -6.4258 C   0  0  0  0  0  0  0  0  0  0  0  0
   -5.6560    5.4548   -6.3092 C   0  0  0  0  0  0  0  0  0  0  0  0
   -6.1726    4.6484   -7.5097 C   0  0  0  0  0  0  0  0  0  0  0  0
   -7.5779    4.1837   -7.2988 N   0  0  0  0  0  0  0  0  0  0  0  0
   -8.4685    5.3367   -7.5692 C   0  0  0  0  0  0  0  0  0  0  0  0
   -8.5106    5.3785   -9.0640 C   0  0  0  0  0  0  0  0  0  0  0  0
   -8.5151    6.4646   -9.9005 C   0  0  0  0  0  0  0  0  0  0  0  0
   -8.3144    6.2197  -11.2565 C   0  0  0  0  0  0  0  0  0  0  0  0
   -8.1675    4.9099  -11.7631 C   0  0  0  0  0  0  0  0  0  0  0  0
   -7.8822    4.7471  -13.1129 N   0  0  0  0  0  0  0  0  0  0  0  0
   -7.4000    5.7620  -14.1605 C   0  0  0  0  0  0  0  0  0  0  0  0
   -7.2381    6.9134  -14.0789 O   0  0  0  0  0  0  0  0  0  0  0  0
   -7.0993    5.1484  -15.4634 C   0  0  0  0  0  0  0  0  0  0  0  0
   -8.0791    4.5212  -16.2436 C   0  0  0  0  0  0  0  0  0  0  0  0
   -7.8200    4.2758  -17.6028 C   0  0  0  0  0  0  0  0  0  0  0  0
   -8.8414    3.7566  -18.5847 C   0  0  0  0  0  0  0  0  0  0  0  0
   -9.4744    2.4194  -18.3484 C   0  0  0  0  0  0  0  0  0  0  0  0
  -10.3129    3.6722  -18.3257 C   0  0  0  0  0  0  0  0  0  0  0  0
   -6.6291    4.5605  -18.1800 N   0  0  0  0  0  0  0  0  0  0  0  0
   -5.7291    5.1527  -17.3895 C   0  0  0  0  0  0  0  0  0  0  0  0
   -5.8777    5.4711  -16.0585 C   0  0  0  0  0  0  0  0  0  0  0  0
   -4.6896    6.1507  -15.7258 C   0  0  0  0  0  0  0  0  0  0  0  0
   -3.8575    6.2712  -16.7653 N   0  0  0  0  0  0  0  0  0  0  0  0
   -4.5044    5.6325  -17.7655 N   0  0  0  0  0  0  0  0  0  0  0  0
   -3.9958    5.6560  -19.1195 C   0  0  0  0  0  0  0  0  0  0  0  0
   -2.5306    5.2890  -19.2271 C   0  0  0  0  0  0  0  0  0  0  0  0
   -1.7332    6.2650  -18.7317 F   0  0  0  0  0  0  0  0  0  0  0  0
   -2.2568    4.1486  -18.5502 F   0  0  0  0  0  0  0  0  0  0  0  0
   -8.2110    3.8113  -10.9125 C   0  0  0  0  0  0  0  0  0  0  0  0
   -8.3194    4.0865   -9.5600 C   0  0  0  0  0  0  0  0  0  0  0  0
   -8.0073    3.2115   -8.3905 C   0  0  0  0  0  0  0  0  0  0  0  0
  1  2  1  0
  2  3  1  0
  3  4  1  0
  4  5  1  0
  5  6  1  0
  6  7  1  0
  7  8  1  0
  8  9  1  0
  9 10  2  0
 10 11  1  0
 11 12  2  0
 12 13  1  0
 13 14  1  0
 14 15  2  0
 14 16  1  0
 16 17  2  0
 17 18  1  0
 18 19  1  0
 19 20  1  0
 20 21  1  0
 18 22  2  0
 22 23  1  0
 23 24  2  0
 24 25  1  0
 25 26  2  0
 26 27  1  0
 27 28  1  0
 28 29  1  0
 29 30  1  0
 29 31  1  0
 12 32  1  0
 32 33  2  0
 33 34  1  0
 34  7  1  0
 33  9  1  0
 24 16  1  0
 21 19  1  0
 27 23  1  0
M  END
>  <name>  (854) 
P125840

>  <alias>  (854) 
None

>  <smina_score_min>  (854) 
-6.94

>  <exports>  (854) 
['/opt/xchem-fragalysis-2/maxwin/BulkDock/OUTPUTS/openbind_xx01zvns2b_c2_elabs_1LOUTNY.sdf', '/opt/xchem-fragalysis-2/maxwin/BulkDock/OUTPUTS/openbind_xx01zvns2b_c2_elabs_1LSYIIV.sdf']

>  <tags>  (854) 
syndirella_placed,openbind_xx01zvns2b_c2_elabs,openbind_xx01zvns2b_c2_elabs_scored_6.2plus,syndirella_product,openbind_xx01zvns2b_c2_elabs_scored,openbind_xx01zvns2b_c2_elabs_scored_top80percent,BulkDock Fragalysis export

>  <subsites>  (854) 
1 - Z4590/B/203/1

>  <smiles>  (854) 
CCOCCCN1Cc2ccc(NC(=O)c3cc(C4CC4)nc4c3cnn4CC(F)F)cc2C1

>  <HIPPO Pose ID>  (854) 
125840

>  <energy_score>  (854) 
-53.32938

>  <inchikey>  (854) 
WZTFTJXBCURBOW-UHFFFAOYSA-N

>  <gnina_score_min>  (854) 
6.45

>  <gnina_score>  (854) 
6.388

>  <ref_mols>  (854) 
Z3559a

>  <HIPPO Compound ID>  (854) 
187973

>  <distance_score>  (854) 
1.170146

>  <rmsd(smina/fragmenstein)>  (854) 
1.187

>  <ref_pdb>  (854) 
Z3559a

>  <inspiration_score>  (854) 
None

$$$$
P125843
     RDKit          3D

 34 39  0  0  0  0  0  0  0  0999 V2000
   -6.3603    6.3448  -13.7009 O   0  0  0  0  0  0  0  0  0  0  0  0
   -6.9253    5.3259  -13.8121 C   0  0  0  0  0  0  0  0  0  0  0  0
   -7.5620    4.4070  -12.7369 N   0  0  0  0  0  0  0  0  0  0  0  0
   -7.7131    4.5913  -11.3635 C   0  0  0  0  0  0  0  0  0  0  0  0
   -7.2181    5.8196  -10.8852 C   0  0  0  0  0  0  0  0  0  0  0  0
   -7.2864    6.1610   -9.5611 C   0  0  0  0  0  0  0  0  0  0  0  0
   -7.8808    5.2546   -8.7260 C   0  0  0  0  0  0  0  0  0  0  0  0
   -8.3889    4.0153   -9.1360 C   0  0  0  0  0  0  0  0  0  0  0  0
   -8.3000    3.6591  -10.4837 C   0  0  0  0  0  0  0  0  0  0  0  0
   -8.9839    3.3404   -7.9067 C   0  0  0  0  0  0  0  0  0  0  0  0
   -9.1379    4.5134   -6.9744 N   0  0  0  0  0  0  0  0  0  0  0  0
   -9.3240    4.5316   -5.6006 C   0  0  0  0  0  0  0  0  0  0  0  0
   -9.6264    5.7548   -4.9546 C   0  0  0  0  0  0  0  0  0  0  0  0
   -9.5646    5.9092   -3.5691 C   0  0  0  0  0  0  0  0  0  0  0  0
   -9.2671    4.8141   -2.7830 C   0  0  0  0  0  0  0  0  0  0  0  0
   -9.0494    3.5877   -3.3998 C   0  0  0  0  0  0  0  0  0  0  0  0
   -9.0967    3.4395   -4.7922 C   0  0  0  0  0  0  0  0  0  0  0  0
   -8.1105    5.5019   -7.2946 C   0  0  0  0  0  0  0  0  0  0  0  0
   -7.0184    4.8432  -15.1945 C   0  0  0  0  0  0  0  0  0  0  0  0
   -8.1909    4.3445  -15.7587 C   0  0  0  0  0  0  0  0  0  0  0  0
   -8.2669    4.1807  -17.1486 C   0  0  0  0  0  0  0  0  0  0  0  0
   -9.5725    3.7429  -17.7691 C   0  0  0  0  0  0  0  0  0  0  0  0
   -9.5895    2.5410  -18.6780 C   0  0  0  0  0  0  0  0  0  0  0  0
   -9.8230    3.9093  -19.2454 C   0  0  0  0  0  0  0  0  0  0  0  0
   -7.2364    4.4710  -17.9895 N   0  0  0  0  0  0  0  0  0  0  0  0
   -6.1314    4.9356  -17.3926 C   0  0  0  0  0  0  0  0  0  0  0  0
   -5.9414    5.1330  -16.0438 C   0  0  0  0  0  0  0  0  0  0  0  0
   -4.6322    5.6575  -15.9445 C   0  0  0  0  0  0  0  0  0  0  0  0
   -4.0296    5.7743  -17.1327 N   0  0  0  0  0  0  0  0  0  0  0  0
   -4.9907    5.3832  -18.0002 N   0  0  0  0  0  0  0  0  0  0  0  0
   -4.7904    5.5513  -19.4183 C   0  0  0  0  0  0  0  0  0  0  0  0
   -5.6489    6.6670  -19.9533 C   0  0  0  0  0  0  0  0  0  0  0  0
   -5.3497    6.8831  -21.2619 F   0  0  0  0  0  0  0  0  0  0  0  0
   -5.3792    7.8443  -19.3240 F   0  0  0  0  0  0  0  0  0  0  0  0
  1  2  2  0
  2  3  1  0
  3  4  1  0
  4  5  2  0
  5  6  1  0
  6  7  2  0
  7  8  1  0
  8  9  2  0
  8 10  1  0
 10 11  1  0
 11 12  1  0
 12 13  2  0
 13 14  1  0
 14 15  2  0
 15 16  1  0
 16 17  2  0
 11 18  1  0
  2 19  1  0
 19 20  2  0
 20 21  1  0
 21 22  1  0
 22 23  1  0
 23 24  1  0
 21 25  2  0
 25 26  1  0
 26 27  2  0
 27 28  1  0
 28 29  2  0
 29 30  1  0
 30 31  1  0
 31 32  1  0
 32 33  1  0
 32 34  1  0
  9  4  1  0
 17 12  1  0
 27 19  1  0
 18  7  1  0
 24 22  1  0
 30 26  1  0
M  END
>  <name>  (855) 
P125843

>  <alias>  (855) 
None

>  <smina_score_min>  (855) 
-8.598

>  <exports>  (855) 
['/opt/xchem-fragalysis-2/maxwin/BulkDock/OUTPUTS/openbind_xx01zvns2b_c2_elabs_1LOUTNY.sdf', '/opt/xchem-fragalysis-2/maxwin/BulkDock/OUTPUTS/openbind_xx01zvns2b_c2_elabs_1LSYIIV.sdf']

>  <tags>  (855) 
syndirella_placed,openbind_xx01zvns2b_c2_elabs,openbind_xx01zvns2b_c2_elabs_scored_6.2plus,syndirella_product,openbind_xx01zvns2b_c2_elabs_scored,openbind_xx01zvns2b_c2_elabs_scored_top80percent,BulkDock Fragalysis export

>  <subsites>  (855) 
1 - Z4590/B/203/1

>  <smiles>  (855) 
O=C(Nc1ccc2c(c1)CN(c1ccccc1)C2)c1cc(C2CC2)nc2c1cnn2CC(F)F

>  <HIPPO Pose ID>  (855) 
125843

>  <energy_score>  (855) 
-21.453794

>  <inchikey>  (855) 
KPUFBUOUSBFCSZ-UHFFFAOYSA-N

>  <gnina_score_min>  (855) 
6.236

>  <gnina_score>  (855) 
6.273

>  <ref_mols>  (855) 
Z3559a

>  <HIPPO Compound ID>  (855) 
187975

>  <distance_score>  (855) 
0.962002

>  <rmsd(smina/fragmenstein)>  (855) 
1.142

>  <ref_pdb>  (855) 
Z3559a

>  <inspiration_score>  (855) 
None

$$$$
P125844
     RDKit          3D

 34 39  0  0  0  0  0  0  0  0999 V2000
   -6.2124    6.1802  -13.5324 O   0  0  0  0  0  0  0  0  0  0  0  0
   -6.8917    5.2640  -13.7851 C   0  0  0  0  0  0  0  0  0  0  0  0
   -7.6304    4.2765  -12.8522 N   0  0  0  0  0  0  0  0  0  0  0  0
   -7.7596    4.2672  -11.4705 C   0  0  0  0  0  0  0  0  0  0  0  0
   -7.0943    5.2656  -10.7234 C   0  0  0  0  0  0  0  0  0  0  0  0
   -7.0985    5.2521   -9.3357 C   0  0  0  0  0  0  0  0  0  0  0  0
   -7.8025    4.2361   -8.7407 C   0  0  0  0  0  0  0  0  0  0  0  0
   -8.5118    3.2874   -9.4556 C   0  0  0  0  0  0  0  0  0  0  0  0
   -8.4973    3.2631  -10.8366 C   0  0  0  0  0  0  0  0  0  0  0  0
   -9.2142    2.4553   -8.4783 C   0  0  0  0  0  0  0  0  0  0  0  0
   -9.9339    1.5235   -8.7740 O   0  0  0  0  0  0  0  0  0  0  0  0
   -8.9009    2.9740   -7.2523 N   0  0  0  0  0  0  0  0  0  0  0  0
   -9.3712    2.4809   -5.9937 C   0  0  0  0  0  0  0  0  0  0  0  0
  -10.4265    3.3899   -5.4281 C   0  0  0  0  0  0  0  0  0  0  0  0
  -10.2790    4.8978   -5.3262 C   0  0  0  0  0  0  0  0  0  0  0  0
  -10.1724    4.0544   -4.0956 C   0  0  0  0  0  0  0  0  0  0  0  0
   -7.9566    3.9535   -7.3303 C   0  0  0  0  0  0  0  0  0  0  0  0
   -7.3103    4.5089   -6.4566 O   0  0  0  0  0  0  0  0  0  0  0  0
   -7.0419    4.9266  -15.2161 C   0  0  0  0  0  0  0  0  0  0  0  0
   -8.2214    4.4200  -15.7725 C   0  0  0  0  0  0  0  0  0  0  0  0
   -8.3192    4.2418  -17.1563 C   0  0  0  0  0  0  0  0  0  0  0  0
   -9.6167    3.7638  -17.7603 C   0  0  0  0  0  0  0  0  0  0  0  0
   -9.8896    3.9285  -19.2328 C   0  0  0  0  0  0  0  0  0  0  0  0
   -9.6038    2.5658  -18.6755 C   0  0  0  0  0  0  0  0  0  0  0  0
   -7.3088    4.5459  -18.0030 N   0  0  0  0  0  0  0  0  0  0  0  0
   -6.2070    5.0419  -17.4316 C   0  0  0  0  0  0  0  0  0  0  0  0
   -5.9893    5.2420  -16.0858 C   0  0  0  0  0  0  0  0  0  0  0  0
   -4.6774    5.7636  -16.0201 C   0  0  0  0  0  0  0  0  0  0  0  0
   -4.1106    5.9045  -17.2260 N   0  0  0  0  0  0  0  0  0  0  0  0
   -5.0939    5.5064  -18.0711 N   0  0  0  0  0  0  0  0  0  0  0  0
   -4.9457    5.6977  -19.4950 C   0  0  0  0  0  0  0  0  0  0  0  0
   -4.8090    7.1674  -19.8140 C   0  0  0  0  0  0  0  0  0  0  0  0
   -4.6162    7.3380  -21.1490 F   0  0  0  0  0  0  0  0  0  0  0  0
   -5.9470    7.8504  -19.5082 F   0  0  0  0  0  0  0  0  0  0  0  0
  1  2  2  0
  2  3  1  0
  3  4  1  0
  4  5  2  0
  5  6  1  0
  6  7  2  0
  7  8  1  0
  8  9  2  0
  8 10  1  0
 10 11  2  0
 10 12  1  0
 12 13  1  0
 13 14  1  0
 14 15  1  0
 15 16  1  0
 12 17  1  0
 17 18  2  0
  2 19  1  0
 19 20  2  0
 20 21  1  0
 21 22  1  0
 22 23  1  0
 23 24  1  0
 21 25  2  0
 25 26  1  0
 26 27  2  0
 27 28  1  0
 28 29  2  0
 29 30  1  0
 30 31  1  0
 31 32  1  0
 32 33  1  0
 32 34  1  0
  9  4  1  0
 16 14  1  0
 27 19  1  0
 17  7  1  0
 24 22  1  0
 30 26  1  0
M  END
>  <name>  (856) 
P125844

>  <alias>  (856) 
None

>  <smina_score_min>  (856) 
-8.656

>  <exports>  (856) 
['/opt/xchem-fragalysis-2/maxwin/BulkDock/OUTPUTS/openbind_xx01zvns2b_c2_elabs_1LOUTNY.sdf', '/opt/xchem-fragalysis-2/maxwin/BulkDock/OUTPUTS/openbind_xx01zvns2b_c2_elabs_1LSYIIV.sdf']

>  <tags>  (856) 
syndirella_placed,openbind_xx01zvns2b_c2_elabs,openbind_xx01zvns2b_c2_elabs_scored_6.2plus,syndirella_product,openbind_xx01zvns2b_c2_elabs_scored,openbind_xx01zvns2b_c2_elabs_scored_top80percent,BulkDock Fragalysis export

>  <subsites>  (856) 
1 - Z4590/B/203/1

>  <smiles>  (856) 
O=C(Nc1ccc2c(c1)C(=O)N(CC1CC1)C2=O)c1cc(C2CC2)nc2c1cnn2CC(F)F

>  <HIPPO Pose ID>  (856) 
125844

>  <energy_score>  (856) 
-45.129667

>  <inchikey>  (856) 
YYXQZWDEPSGTJS-UHFFFAOYSA-N

>  <gnina_score_min>  (856) 
6.257

>  <gnina_score>  (856) 
6.393

>  <ref_mols>  (856) 
Z3559a

>  <HIPPO Compound ID>  (856) 
187976

>  <distance_score>  (856) 
0.576588

>  <rmsd(smina/fragmenstein)>  (856) 
0.545

>  <ref_pdb>  (856) 
Z3559a

>  <inspiration_score>  (856) 
None

$$$$
P125847
     RDKit          3D

 34 40  0  0  0  0  0  0  0  0999 V2000
   -4.8125    5.3845  -19.3412 C   0  0  0  0  0  0  0  0  0  0  0  0
   -5.0509    5.3471  -17.9209 N   0  0  0  0  0  0  0  0  0  0  0  0
   -4.1297    5.8453  -17.0669 N   0  0  0  0  0  0  0  0  0  0  0  0
   -4.7415    5.7532  -15.8783 C   0  0  0  0  0  0  0  0  0  0  0  0
   -4.0555    6.2694  -14.5821 C   0  0  0  0  0  0  0  0  0  0  0  0
   -2.6775    5.7587  -14.2393 C   0  0  0  0  0  0  0  0  0  0  0  0
   -3.8531    5.3572  -13.4001 C   0  0  0  0  0  0  0  0  0  0  0  0
   -6.0395    5.1921  -15.9624 C   0  0  0  0  0  0  0  0  0  0  0  0
   -7.1436    4.9093  -15.1437 C   0  0  0  0  0  0  0  0  0  0  0  0
   -7.1936    5.4727  -13.7930 C   0  0  0  0  0  0  0  0  0  0  0  0
   -6.8951    6.6018  -13.7142 O   0  0  0  0  0  0  0  0  0  0  0  0
   -7.6189    4.4649  -12.6906 N   0  0  0  0  0  0  0  0  0  0  0  0
   -7.8481    4.6568  -11.3268 C   0  0  0  0  0  0  0  0  0  0  0  0
   -7.6293    5.9650  -10.8615 C   0  0  0  0  0  0  0  0  0  0  0  0
   -7.8293    6.3029   -9.5460 C   0  0  0  0  0  0  0  0  0  0  0  0
   -8.2649    5.3094   -8.7056 C   0  0  0  0  0  0  0  0  0  0  0  0
   -8.4858    3.9885   -9.1030 C   0  0  0  0  0  0  0  0  0  0  0  0
   -8.2710    3.6411  -10.4409 C   0  0  0  0  0  0  0  0  0  0  0  0
   -8.9674    3.2061   -7.8879 C   0  0  0  0  0  0  0  0  0  0  0  0
   -9.2981    4.2949   -6.8990 N   0  0  0  0  0  0  0  0  0  0  0  0
   -9.1678    4.2651   -5.5031 C   0  0  0  0  0  0  0  0  0  0  0  0
   -8.1099    3.6338   -4.8690 C   0  0  0  0  0  0  0  0  0  0  0  0
   -7.6705    4.0792   -3.6159 C   0  0  0  0  0  0  0  0  0  0  0  0
   -8.3704    5.0464   -2.9074 C   0  0  0  0  0  0  0  0  0  0  0  0
   -9.5030    5.6012   -3.4731 C   0  0  0  0  0  0  0  0  0  0  0  0
   -9.8947    5.2147   -4.7580 C   0  0  0  0  0  0  0  0  0  0  0  0
   -8.5742    5.5207   -7.2819 C   0  0  0  0  0  0  0  0  0  0  0  0
   -8.2921    4.3659  -15.7222 C   0  0  0  0  0  0  0  0  0  0  0  0
   -8.3284    4.1490  -17.1015 C   0  0  0  0  0  0  0  0  0  0  0  0
   -9.6156    3.7127  -17.7563 C   0  0  0  0  0  0  0  0  0  0  0  0
   -9.6116    2.5149  -18.6698 C   0  0  0  0  0  0  0  0  0  0  0  0
   -9.8221    3.8863  -19.2394 C   0  0  0  0  0  0  0  0  0  0  0  0
   -7.2715    4.4006  -17.9095 N   0  0  0  0  0  0  0  0  0  0  0  0
   -6.1938    4.9202  -17.3077 C   0  0  0  0  0  0  0  0  0  0  0  0
  1  2  1  0
  2  3  1  0
  3  4  2  0
  4  5  1  0
  5  6  1  0
  6  7  1  0
  4  8  1  0
  8  9  2  0
  9 10  1  0
 10 11  2  0
 10 12  1  0
 12 13  1  0
 13 14  2  0
 14 15  1  0
 15 16  2  0
 16 17  1  0
 17 18  2  0
 17 19  1  0
 19 20  1  0
 20 21  1  0
 21 22  2  0
 22 23  1  0
 23 24  2  0
 24 25  1  0
 25 26  2  0
 20 27  1  0
  9 28  1  0
 28 29  2  0
 29 30  1  0
 30 31  1  0
 31 32  1  0
 29 33  1  0
 33 34  2  0
 34  2  1  0
  7  5  1  0
 34  8  1  0
 18 13  1  0
 26 21  1  0
 32 30  1  0
 27 16  1  0
M  END
>  <name>  (857) 
P125847

>  <alias>  (857) 
None

>  <smina_score_min>  (857) 
-8.97

>  <exports>  (857) 
['/opt/xchem-fragalysis-2/maxwin/BulkDock/OUTPUTS/openbind_xx01zvns2b_c2_elabs_1LOUTNY.sdf', '/opt/xchem-fragalysis-2/maxwin/BulkDock/OUTPUTS/openbind_xx01zvns2b_c2_elabs_1LSYIIV.sdf']

>  <tags>  (857) 
syndirella_placed,openbind_xx01zvns2b_c2_elabs,openbind_xx01zvns2b_c2_elabs_scored_6.2plus,syndirella_product,openbind_xx01zvns2b_c2_elabs_scored,openbind_xx01zvns2b_c2_elabs_scored_top80percent,BulkDock Fragalysis export

>  <subsites>  (857) 
1 - Z4590/B/203/1

>  <smiles>  (857) 
Cn1nc(C2CC2)c2c(C(=O)Nc3ccc4c(c3)CN(c3ccccc3)C4)cc(C3CC3)nc21

>  <HIPPO Pose ID>  (857) 
125847

>  <energy_score>  (857) 
-25.288339

>  <inchikey>  (857) 
OAUHQUVFGGZIFL-UHFFFAOYSA-N

>  <gnina_score_min>  (857) 
6.364

>  <gnina_score>  (857) 
6.575

>  <ref_mols>  (857) 
Z3559a

>  <HIPPO Compound ID>  (857) 
187981

>  <distance_score>  (857) 
0.902859

>  <rmsd(smina/fragmenstein)>  (857) 
0.73

>  <ref_pdb>  (857) 
Z3559a

>  <inspiration_score>  (857) 
None

$$$$
P125848
     RDKit          3D

 34 40  0  0  0  0  0  0  0  0999 V2000
   -4.7907    5.3898  -19.3644 C   0  0  0  0  0  0  0  0  0  0  0  0
   -5.0526    5.3829  -17.9477 N   0  0  0  0  0  0  0  0  0  0  0  0
   -4.1341    5.8720  -17.0857 N   0  0  0  0  0  0  0  0  0  0  0  0
   -4.7663    5.8099  -15.9053 C   0  0  0  0  0  0  0  0  0  0  0  0
   -4.0810    6.3141  -14.6040 C   0  0  0  0  0  0  0  0  0  0  0  0
   -3.8663    5.3845  -13.4377 C   0  0  0  0  0  0  0  0  0  0  0  0
   -2.6970    5.8105  -14.2730 C   0  0  0  0  0  0  0  0  0  0  0  0
   -6.0803    5.2904  -16.0048 C   0  0  0  0  0  0  0  0  0  0  0  0
   -7.2035    5.0364  -15.2058 C   0  0  0  0  0  0  0  0  0  0  0  0
   -7.2320    5.4882  -13.8080 C   0  0  0  0  0  0  0  0  0  0  0  0
   -6.8512    6.5673  -13.5772 O   0  0  0  0  0  0  0  0  0  0  0  0
   -7.7575    4.3872  -12.8594 N   0  0  0  0  0  0  0  0  0  0  0  0
   -7.8320    4.3513  -11.4754 C   0  0  0  0  0  0  0  0  0  0  0  0
   -7.1884    5.3673  -10.7351 C   0  0  0  0  0  0  0  0  0  0  0  0
   -7.1507    5.3309   -9.3477 C   0  0  0  0  0  0  0  0  0  0  0  0
   -7.8031    4.2824   -8.7472 C   0  0  0  0  0  0  0  0  0  0  0  0
   -8.4955    3.3174   -9.4564 C   0  0  0  0  0  0  0  0  0  0  0  0
   -8.5031    3.3037  -10.8366 C   0  0  0  0  0  0  0  0  0  0  0  0
   -9.1828    2.4771   -8.4752 C   0  0  0  0  0  0  0  0  0  0  0  0
   -9.9230    1.5594   -8.7641 O   0  0  0  0  0  0  0  0  0  0  0  0
   -8.8569    2.9910   -7.2504 N   0  0  0  0  0  0  0  0  0  0  0  0
   -9.3174    2.4921   -5.9904 C   0  0  0  0  0  0  0  0  0  0  0  0
  -10.3924    3.3808   -5.4257 C   0  0  0  0  0  0  0  0  0  0  0  0
  -10.1429    4.0696   -4.1045 C   0  0  0  0  0  0  0  0  0  0  0  0
  -10.2829    4.8931   -5.3451 C   0  0  0  0  0  0  0  0  0  0  0  0
   -7.9343    3.9903   -7.3358 C   0  0  0  0  0  0  0  0  0  0  0  0
   -7.2985    4.5635   -6.4662 O   0  0  0  0  0  0  0  0  0  0  0  0
   -8.3428    4.4850  -15.7986 C   0  0  0  0  0  0  0  0  0  0  0  0
   -8.3522    4.2225  -17.1674 C   0  0  0  0  0  0  0  0  0  0  0  0
   -9.6246    3.7460  -17.8213 C   0  0  0  0  0  0  0  0  0  0  0  0
   -9.5973    2.5164  -18.6898 C   0  0  0  0  0  0  0  0  0  0  0  0
   -9.8102    3.8657  -19.3105 C   0  0  0  0  0  0  0  0  0  0  0  0
   -7.2809    4.4579  -17.9582 N   0  0  0  0  0  0  0  0  0  0  0  0
   -6.2126    4.9874  -17.3469 C   0  0  0  0  0  0  0  0  0  0  0  0
  1  2  1  0
  2  3  1  0
  3  4  2  0
  4  5  1  0
  5  6  1  0
  6  7  1  0
  4  8  1  0
  8  9  2  0
  9 10  1  0
 10 11  2  0
 10 12  1  0
 12 13  1  0
 13 14  2  0
 14 15  1  0
 15 16  2  0
 16 17  1  0
 17 18  2  0
 17 19  1  0
 19 20  2  0
 19 21  1  0
 21 22  1  0
 22 23  1  0
 23 24  1  0
 24 25  1  0
 21 26  1  0
 26 27  2  0
  9 28  1  0
 28 29  2  0
 29 30  1  0
 30 31  1  0
 31 32  1  0
 29 33  1  0
 33 34  2  0
 34  2  1  0
  7  5  1  0
 34  8  1  0
 18 13  1  0
 25 23  1  0
 32 30  1  0
 26 16  1  0
M  END
>  <name>  (858) 
P125848

>  <alias>  (858) 
None

>  <smina_score_min>  (858) 
-8.214

>  <exports>  (858) 
['/opt/xchem-fragalysis-2/maxwin/BulkDock/OUTPUTS/openbind_xx01zvns2b_c2_elabs_1LOUTNY.sdf', '/opt/xchem-fragalysis-2/maxwin/BulkDock/OUTPUTS/openbind_xx01zvns2b_c2_elabs_1LSYIIV.sdf']

>  <tags>  (858) 
syndirella_placed,openbind_xx01zvns2b_c2_elabs,openbind_xx01zvns2b_c2_elabs_scored_6.2plus,syndirella_product,openbind_xx01zvns2b_c2_elabs_scored,openbind_xx01zvns2b_c2_elabs_scored_top80percent,BulkDock Fragalysis export

>  <subsites>  (858) 
1 - Z4590/B/203/1

>  <smiles>  (858) 
Cn1nc(C2CC2)c2c(C(=O)Nc3ccc4c(c3)C(=O)N(CC3CC3)C4=O)cc(C3CC3)nc21

>  <HIPPO Pose ID>  (858) 
125848

>  <energy_score>  (858) 
-42.695955

>  <inchikey>  (858) 
XPFSUNLKDQYJNB-UHFFFAOYSA-N

>  <gnina_score_min>  (858) 
6.267

>  <gnina_score>  (858) 
6.572

>  <ref_mols>  (858) 
Z3559a

>  <HIPPO Compound ID>  (858) 
187983

>  <distance_score>  (858) 
0.57369

>  <rmsd(smina/fragmenstein)>  (858) 
0.853

>  <ref_pdb>  (858) 
Z3559a

>  <inspiration_score>  (858) 
None

$$$$
P125849
     RDKit          3D

 34 39  0  0  0  0  0  0  0  0999 V2000
  -10.3554    1.1124   -6.3901 C   0  0  0  0  0  0  0  0  0  0  0  0
  -10.8831    2.0720   -5.3513 C   0  0  0  0  0  0  0  0  0  0  0  0
  -10.2978    3.4733   -5.3887 C   0  0  0  0  0  0  0  0  0  0  0  0
   -8.7974    3.5040   -5.6427 C   0  0  0  0  0  0  0  0  0  0  0  0
   -8.4790    3.8759   -7.0024 N   0  0  0  0  0  0  0  0  0  0  0  0
   -8.7316    3.0565   -8.1934 C   0  0  0  0  0  0  0  0  0  0  0  0
   -8.2662    3.9452   -9.2968 C   0  0  0  0  0  0  0  0  0  0  0  0
   -8.2114    3.7359  -10.6655 C   0  0  0  0  0  0  0  0  0  0  0  0
   -7.7622    4.7995  -11.4567 C   0  0  0  0  0  0  0  0  0  0  0  0
   -7.6368    4.6564  -12.8312 N   0  0  0  0  0  0  0  0  0  0  0  0
   -7.1279    5.6467  -13.8997 C   0  0  0  0  0  0  0  0  0  0  0  0
   -6.8062    6.7648  -13.8033 O   0  0  0  0  0  0  0  0  0  0  0  0
   -7.0995    5.0661  -15.2462 C   0  0  0  0  0  0  0  0  0  0  0  0
   -8.2266    4.4744  -15.8135 C   0  0  0  0  0  0  0  0  0  0  0  0
   -8.2394    4.1990  -17.1833 C   0  0  0  0  0  0  0  0  0  0  0  0
   -9.5245    3.7151  -17.8133 C   0  0  0  0  0  0  0  0  0  0  0  0
   -9.5157    2.4987  -18.6996 C   0  0  0  0  0  0  0  0  0  0  0  0
   -9.7526    3.8555  -19.2947 C   0  0  0  0  0  0  0  0  0  0  0  0
   -7.1753    4.4401  -17.9937 N   0  0  0  0  0  0  0  0  0  0  0  0
   -6.1144    5.0068  -17.3968 C   0  0  0  0  0  0  0  0  0  0  0  0
   -5.9976    5.3321  -16.0611 C   0  0  0  0  0  0  0  0  0  0  0  0
   -4.7288    5.9335  -15.9463 C   0  0  0  0  0  0  0  0  0  0  0  0
   -4.0823    5.9995  -17.1137 N   0  0  0  0  0  0  0  0  0  0  0  0
   -4.9605    5.4516  -17.9915 N   0  0  0  0  0  0  0  0  0  0  0  0
   -4.7060    5.5143  -19.4216 C   0  0  0  0  0  0  0  0  0  0  0  0
   -3.2438    5.2305  -19.8144 C   0  0  0  0  0  0  0  0  0  0  0  0
   -2.6600    6.5864  -20.1840 C   0  0  0  0  0  0  0  0  0  0  0  0
   -3.8274    7.2885  -20.8528 C   0  0  0  0  0  0  0  0  0  0  0  0
   -5.0212    6.9116  -19.9855 C   0  0  0  0  0  0  0  0  0  0  0  0
   -7.4100    6.0373  -10.8800 C   0  0  0  0  0  0  0  0  0  0  0  0
   -7.4754    6.2397   -9.5117 C   0  0  0  0  0  0  0  0  0  0  0  0
   -7.8950    5.1761   -8.7569 C   0  0  0  0  0  0  0  0  0  0  0  0
   -8.0331    5.1365   -7.3100 C   0  0  0  0  0  0  0  0  0  0  0  0
   -7.7857    6.0656   -6.5640 O   0  0  0  0  0  0  0  0  0  0  0  0
  1  2  1  0
  2  3  1  0
  3  4  1  0
  4  5  1  0
  5  6  1  0
  6  7  1  0
  7  8  2  0
  8  9  1  0
  9 10  1  0
 10 11  1  0
 11 12  2  0
 11 13  1  0
 13 14  2  0
 14 15  1  0
 15 16  1  0
 16 17  1  0
 17 18  1  0
 15 19  2  0
 19 20  1  0
 20 21  2  0
 21 22  1  0
 22 23  2  0
 23 24  1  0
 24 25  1  0
 25 26  1  0
 26 27  1  0
 27 28  1  0
 28 29  1  0
  9 30  2  0
 30 31  1  0
 31 32  2  0
 32 33  1  0
 33 34  2  0
 33  5  1  0
 32  7  1  0
 21 13  1  0
 29 25  1  0
 18 16  1  0
 24 20  1  0
M  END
>  <name>  (859) 
P125849

>  <alias>  (859) 
None

>  <smina_score_min>  (859) 
-8.655

>  <exports>  (859) 
['/opt/xchem-fragalysis-2/maxwin/BulkDock/OUTPUTS/openbind_xx01zvns2b_c2_elabs_1LOUTNY.sdf', '/opt/xchem-fragalysis-2/maxwin/BulkDock/OUTPUTS/openbind_xx01zvns2b_c2_elabs_1LSYIIV.sdf']

>  <tags>  (859) 
syndirella_placed,openbind_xx01zvns2b_c2_elabs,openbind_xx01zvns2b_c2_elabs_scored_6.2plus,syndirella_product,openbind_xx01zvns2b_c2_elabs_scored,openbind_xx01zvns2b_c2_elabs_scored_top80percent,BulkDock Fragalysis export

>  <subsites>  (859) 
1 - Z4590/B/203/1

>  <smiles>  (859) 
CCCCN1Cc2cc(NC(=O)c3cc(C4CC4)nc4c3cnn4C3CCCC3)ccc2C1=O

>  <HIPPO Pose ID>  (859) 
125849

>  <energy_score>  (859) 
-15.334802

>  <inchikey>  (859) 
XZBLHFWLNJVTCB-UHFFFAOYSA-N

>  <gnina_score_min>  (859) 
6.489

>  <gnina_score>  (859) 
6.502

>  <ref_mols>  (859) 
Z3559a

>  <HIPPO Compound ID>  (859) 
187985

>  <distance_score>  (859) 
0.895931

>  <rmsd(smina/fragmenstein)>  (859) 
1.057

>  <ref_pdb>  (859) 
Z3559a

>  <inspiration_score>  (859) 
None

$$$$
P125851
     RDKit          3D

 34 39  0  0  0  0  0  0  0  0999 V2000
   -9.1938    2.5680   -5.8125 C   0  0  0  0  0  0  0  0  0  0  0  0
   -9.3324    3.3809   -6.9916 N   0  0  0  0  0  0  0  0  0  0  0  0
   -9.0855    2.6139   -8.2326 C   0  0  0  0  0  0  0  0  0  0  0  0
   -8.6432    3.6520   -9.2107 C   0  0  0  0  0  0  0  0  0  0  0  0
   -8.4809    3.5376  -10.5848 C   0  0  0  0  0  0  0  0  0  0  0  0
   -8.0437    4.6633  -11.2833 C   0  0  0  0  0  0  0  0  0  0  0  0
   -7.8677    4.5960  -12.6634 N   0  0  0  0  0  0  0  0  0  0  0  0
   -7.2292    5.6047  -13.6437 C   0  0  0  0  0  0  0  0  0  0  0  0
   -6.8200    6.6829  -13.4605 O   0  0  0  0  0  0  0  0  0  0  0  0
   -7.1827    5.0942  -15.0284 C   0  0  0  0  0  0  0  0  0  0  0  0
   -8.2929    4.5182  -15.6519 C   0  0  0  0  0  0  0  0  0  0  0  0
   -8.2632    4.2554  -17.0272 C   0  0  0  0  0  0  0  0  0  0  0  0
   -9.5210    3.7618  -17.7112 C   0  0  0  0  0  0  0  0  0  0  0  0
   -9.7162    3.9508  -19.1942 C   0  0  0  0  0  0  0  0  0  0  0  0
   -9.4597    2.5799  -18.6448 C   0  0  0  0  0  0  0  0  0  0  0  0
   -7.1741    4.5097  -17.7969 N   0  0  0  0  0  0  0  0  0  0  0  0
   -6.1320    5.0598  -17.1549 C   0  0  0  0  0  0  0  0  0  0  0  0
   -6.0537    5.3598  -15.8087 C   0  0  0  0  0  0  0  0  0  0  0  0
   -4.7666    5.9093  -15.6401 C   0  0  0  0  0  0  0  0  0  0  0  0
   -4.0636    5.9420  -16.7770 N   0  0  0  0  0  0  0  0  0  0  0  0
   -4.9467    5.4771  -17.7020 N   0  0  0  0  0  0  0  0  0  0  0  0
   -4.5648    5.3975  -19.1049 C   0  0  0  0  0  0  0  0  0  0  0  0
   -4.6659    6.7056  -19.8563 C   0  0  0  0  0  0  0  0  0  0  0  0
   -4.2790    7.9348  -19.3123 C   0  0  0  0  0  0  0  0  0  0  0  0
   -4.3657    9.0759  -20.0970 C   0  0  0  0  0  0  0  0  0  0  0  0
   -4.7965    9.0810  -21.3761 N   0  0  0  0  0  0  0  0  0  0  0  0
   -5.1210    7.8808  -21.9021 C   0  0  0  0  0  0  0  0  0  0  0  0
   -5.0733    6.6895  -21.1948 C   0  0  0  0  0  0  0  0  0  0  0  0
   -7.7849    5.8646  -10.6009 C   0  0  0  0  0  0  0  0  0  0  0  0
   -7.9487    5.9639   -9.2181 C   0  0  0  0  0  0  0  0  0  0  0  0
   -8.3765    4.8472   -8.5284 C   0  0  0  0  0  0  0  0  0  0  0  0
   -8.5580    4.6422   -7.0409 C   0  0  0  0  0  0  0  0  0  0  0  0
   -7.1548    4.6509   -6.4066 C   0  0  0  0  0  0  0  0  0  0  0  0
   -9.3588    5.7352   -6.3070 C   0  0  0  0  0  0  0  0  0  0  0  0
  1  2  1  0
  2  3  1  0
  3  4  1  0
  4  5  2  0
  5  6  1  0
  6  7  1  0
  7  8  1  0
  8  9  2  0
  8 10  1  0
 10 11  2  0
 11 12  1  0
 12 13  1  0
 13 14  1  0
 14 15  1  0
 12 16  2  0
 16 17  1  0
 17 18  2  0
 18 19  1  0
 19 20  2  0
 20 21  1  0
 21 22  1  0
 22 23  1  0
 23 24  2  0
 24 25  1  0
 25 26  2  0
 26 27  1  0
 27 28  2  0
  6 29  2  0
 29 30  1  0
 30 31  2  0
 31 32  1  0
 32 33  1  0
 32 34  1  0
 32  2  1  0
 31  4  1  0
 18 10  1  0
 28 23  1  0
 15 13  1  0
 21 17  1  0
M  END
>  <name>  (860) 
P125851

>  <alias>  (860) 
None

>  <smina_score_min>  (860) 
-8.281

>  <exports>  (860) 
['/opt/xchem-fragalysis-2/maxwin/BulkDock/OUTPUTS/openbind_xx01zvns2b_c2_elabs_1LOUTNY.sdf', '/opt/xchem-fragalysis-2/maxwin/BulkDock/OUTPUTS/openbind_xx01zvns2b_c2_elabs_1LSYIIV.sdf']

>  <tags>  (860) 
syndirella_placed,openbind_xx01zvns2b_c2_elabs,openbind_xx01zvns2b_c2_elabs_scored_6.2plus,syndirella_product,openbind_xx01zvns2b_c2_elabs_scored,openbind_xx01zvns2b_c2_elabs_scored_top80percent,BulkDock Fragalysis export

>  <subsites>  (860) 
1 - Z4590/B/203/1

>  <smiles>  (860) 
CN1Cc2cc(NC(=O)c3cc(C4CC4)nc4c3cnn4Cc3ccncc3)ccc2C1(C)C

>  <HIPPO Pose ID>  (860) 
125851

>  <energy_score>  (860) 
-62.151285

>  <inchikey>  (860) 
XYBAHABIBRIEOT-UHFFFAOYSA-N

>  <gnina_score_min>  (860) 
6.333

>  <gnina_score>  (860) 
6.564

>  <ref_mols>  (860) 
Z3559a

>  <HIPPO Compound ID>  (860) 
187989

>  <distance_score>  (860) 
0.623079

>  <rmsd(smina/fragmenstein)>  (860) 
0.793

>  <ref_pdb>  (860) 
Z3559a

>  <inspiration_score>  (860) 
None

$$$$
P125852
     RDKit          3D

 34 39  0  0  0  0  0  0  0  0999 V2000
   -2.2069    4.7136  -23.1818 C   0  0  0  0  0  0  0  0  0  0  0  0
   -3.1644    5.7059  -22.8237 O   0  0  0  0  0  0  0  0  0  0  0  0
   -3.5448    5.5788  -21.5161 C   0  0  0  0  0  0  0  0  0  0  0  0
   -4.8774    5.2795  -21.2597 C   0  0  0  0  0  0  0  0  0  0  0  0
   -5.3451    5.1992  -19.9431 C   0  0  0  0  0  0  0  0  0  0  0  0
   -4.4810    5.4444  -18.8719 C   0  0  0  0  0  0  0  0  0  0  0  0
   -4.9285    5.4044  -17.5150 N   0  0  0  0  0  0  0  0  0  0  0  0
   -4.0804    5.8043  -16.5223 N   0  0  0  0  0  0  0  0  0  0  0  0
   -4.7957    5.7258  -15.3960 C   0  0  0  0  0  0  0  0  0  0  0  0
   -4.1569    6.1013  -14.1086 C   0  0  0  0  0  0  0  0  0  0  0  0
   -6.1092    5.2497  -15.6284 C   0  0  0  0  0  0  0  0  0  0  0  0
   -7.2717    4.9712  -14.8880 C   0  0  0  0  0  0  0  0  0  0  0  0
   -7.3568    5.3687  -13.4649 C   0  0  0  0  0  0  0  0  0  0  0  0
   -7.0050    6.4500  -13.1960 O   0  0  0  0  0  0  0  0  0  0  0  0
   -7.9266    4.2458  -12.5641 N   0  0  0  0  0  0  0  0  0  0  0  0
   -8.0875    4.1889  -11.1786 C   0  0  0  0  0  0  0  0  0  0  0  0
   -7.6633    5.2645  -10.3714 C   0  0  0  0  0  0  0  0  0  0  0  0
   -7.7894    5.2285   -8.9772 C   0  0  0  0  0  0  0  0  0  0  0  0
   -8.3559    4.1073   -8.4067 C   0  0  0  0  0  0  0  0  0  0  0  0
   -8.7945    3.0570   -9.2134 C   0  0  0  0  0  0  0  0  0  0  0  0
   -8.6636    3.0600  -10.5931 C   0  0  0  0  0  0  0  0  0  0  0  0
   -9.4044    2.0549   -8.3303 C   0  0  0  0  0  0  0  0  0  0  0  0
   -9.9534    1.0303   -8.6730 O   0  0  0  0  0  0  0  0  0  0  0  0
   -9.2842    2.5253   -7.0396 N   0  0  0  0  0  0  0  0  0  0  0  0
   -8.6120    3.7923   -6.9723 C   0  0  0  0  0  0  0  0  0  0  0  0
   -8.3824    4.4583  -15.5616 C   0  0  0  0  0  0  0  0  0  0  0  0
   -8.3290    4.2572  -16.9411 C   0  0  0  0  0  0  0  0  0  0  0  0
   -9.5675    3.7910  -17.6772 C   0  0  0  0  0  0  0  0  0  0  0  0
   -9.4787    2.6202  -18.6241 C   0  0  0  0  0  0  0  0  0  0  0  0
   -9.7157    3.9980  -19.1632 C   0  0  0  0  0  0  0  0  0  0  0  0
   -7.2236    4.5334  -17.6674 N   0  0  0  0  0  0  0  0  0  0  0  0
   -6.1633    5.0222  -16.9960 C   0  0  0  0  0  0  0  0  0  0  0  0
   -3.1361    5.7577  -19.1447 C   0  0  0  0  0  0  0  0  0  0  0  0
   -2.6700    5.8240  -20.4625 C   0  0  0  0  0  0  0  0  0  0  0  0
  1  2  1  0
  2  3  1  0
  3  4  2  0
  4  5  1  0
  5  6  2  0
  6  7  1  0
  7  8  1  0
  8  9  2  0
  9 10  1  0
  9 11  1  0
 11 12  2  0
 12 13  1  0
 13 14  2  0
 13 15  1  0
 15 16  1  0
 16 17  2  0
 17 18  1  0
 18 19  2  0
 19 20  1  0
 20 21  2  0
 20 22  1  0
 22 23  2  0
 22 24  1  0
 24 25  1  0
 12 26  1  0
 26 27  2  0
 27 28  1  0
 28 29  1  0
 29 30  1  0
 27 31  1  0
 31 32  2  0
  6 33  1  0
 33 34  2  0
 34  3  1  0
 32  7  1  0
 32 11  1  0
 21 16  1  0
 30 28  1  0
 25 19  1  0
M  END
>  <name>  (861) 
P125852

>  <alias>  (861) 
None

>  <smina_score_min>  (861) 
-9.879

>  <exports>  (861) 
['/opt/xchem-fragalysis-2/maxwin/BulkDock/OUTPUTS/openbind_xx01zvns2b_c2_elabs_1LOUTNY.sdf', '/opt/xchem-fragalysis-2/maxwin/BulkDock/OUTPUTS/openbind_xx01zvns2b_c2_elabs_1LSYIIV.sdf']

>  <tags>  (861) 
syndirella_placed,openbind_xx01zvns2b_c2_elabs,openbind_xx01zvns2b_c2_elabs_scored_6.2plus,syndirella_product,openbind_xx01zvns2b_c2_elabs_scored,openbind_xx01zvns2b_c2_elabs_scored_top80percent,BulkDock Fragalysis export

>  <subsites>  (861) 
1 - Z4590/B/203/1

>  <smiles>  (861) 
COc1ccc(-n2nc(C)c3c(C(=O)Nc4ccc5c(c4)C(=O)NC5)cc(C4CC4)nc32)cc1

>  <HIPPO Pose ID>  (861) 
125852

>  <energy_score>  (861) 
-56.605626

>  <inchikey>  (861) 
ZJGQSDNEVZSQAA-UHFFFAOYSA-N

>  <gnina_score_min>  (861) 
6.499

>  <gnina_score>  (861) 
6.646

>  <ref_mols>  (861) 
Z3559a

>  <HIPPO Compound ID>  (861) 
187990

>  <distance_score>  (861) 
0.365008

>  <rmsd(smina/fragmenstein)>  (861) 
0.709

>  <ref_pdb>  (861) 
Z3559a

>  <inspiration_score>  (861) 
None

$$$$
P125855
     RDKit          3D

 34 39  0  0  0  0  0  0  0  0999 V2000
   -1.4556    5.4010  -22.9481 C   0  0  0  0  0  0  0  0  0  0  0  0
   -2.8161    5.0735  -22.6905 O   0  0  0  0  0  0  0  0  0  0  0  0
   -3.2418    5.2186  -21.3985 C   0  0  0  0  0  0  0  0  0  0  0  0
   -2.4380    5.5189  -20.3001 C   0  0  0  0  0  0  0  0  0  0  0  0
   -3.0017    5.6304  -19.0225 C   0  0  0  0  0  0  0  0  0  0  0  0
   -4.3746    5.4138  -18.8219 C   0  0  0  0  0  0  0  0  0  0  0  0
   -4.9014    5.4732  -17.4964 N   0  0  0  0  0  0  0  0  0  0  0  0
   -4.1365    5.9825  -16.4872 N   0  0  0  0  0  0  0  0  0  0  0  0
   -4.9144    5.9327  -15.3998 C   0  0  0  0  0  0  0  0  0  0  0  0
   -4.3787    6.4250  -14.1046 C   0  0  0  0  0  0  0  0  0  0  0  0
   -6.1834    5.3659  -15.6746 C   0  0  0  0  0  0  0  0  0  0  0  0
   -7.3715    5.0506  -14.9906 C   0  0  0  0  0  0  0  0  0  0  0  0
   -7.5461    5.4818  -13.5863 C   0  0  0  0  0  0  0  0  0  0  0  0
   -7.2998    6.5929  -13.3257 O   0  0  0  0  0  0  0  0  0  0  0  0
   -7.9942    4.3149  -12.6767 N   0  0  0  0  0  0  0  0  0  0  0  0
   -8.1363    4.2497  -11.2891 C   0  0  0  0  0  0  0  0  0  0  0  0
   -7.8951    5.3822  -10.4861 C   0  0  0  0  0  0  0  0  0  0  0  0
   -7.9998    5.3130   -9.0931 C   0  0  0  0  0  0  0  0  0  0  0  0
   -8.3643    4.1013   -8.5434 C   0  0  0  0  0  0  0  0  0  0  0  0
   -8.6223    2.9745   -9.3199 C   0  0  0  0  0  0  0  0  0  0  0  0
   -8.5029    3.0311  -10.7011 C   0  0  0  0  0  0  0  0  0  0  0  0
   -8.9812    1.8291   -8.4327 C   0  0  0  0  0  0  0  0  0  0  0  0
   -9.0171    2.4385   -7.1192 N   0  0  0  0  0  0  0  0  0  0  0  0
   -8.5471    3.7343   -7.1332 C   0  0  0  0  0  0  0  0  0  0  0  0
   -8.3010    4.4453   -6.1772 O   0  0  0  0  0  0  0  0  0  0  0  0
   -8.3991    4.4057  -15.6884 C   0  0  0  0  0  0  0  0  0  0  0  0
   -8.2275    4.1059  -17.0374 C   0  0  0  0  0  0  0  0  0  0  0  0
   -9.2755    3.3607  -17.8231 C   0  0  0  0  0  0  0  0  0  0  0  0
   -9.4920    3.7904  -19.2535 C   0  0  0  0  0  0  0  0  0  0  0  0
  -10.5839    3.9754  -18.2555 C   0  0  0  0  0  0  0  0  0  0  0  0
   -7.1103    4.4381  -17.7166 N   0  0  0  0  0  0  0  0  0  0  0  0
   -6.1392    5.0558  -17.0238 C   0  0  0  0  0  0  0  0  0  0  0  0
   -5.1784    5.1214  -19.9274 C   0  0  0  0  0  0  0  0  0  0  0  0
   -4.6109    5.0284  -21.2044 C   0  0  0  0  0  0  0  0  0  0  0  0
  1  2  1  0
  2  3  1  0
  3  4  2  0
  4  5  1  0
  5  6  2  0
  6  7  1  0
  7  8  1  0
  8  9  2  0
  9 10  1  0
  9 11  1  0
 11 12  2  0
 12 13  1  0
 13 14  2  0
 13 15  1  0
 15 16  1  0
 16 17  2  0
 17 18  1  0
 18 19  2  0
 19 20  1  0
 20 21  2  0
 20 22  1  0
 22 23  1  0
 23 24  1  0
 24 25  2  0
 12 26  1  0
 26 27  2  0
 27 28  1  0
 28 29  1  0
 29 30  1  0
 27 31  1  0
 31 32  2  0
  6 33  1  0
 33 34  2  0
 34  3  1  0
 32  7  1  0
 32 11  1  0
 21 16  1  0
 30 28  1  0
 24 19  1  0
M  END
>  <name>  (862) 
P125855

>  <alias>  (862) 
None

>  <smina_score_min>  (862) 
-10.165

>  <exports>  (862) 
['/opt/xchem-fragalysis-2/maxwin/BulkDock/OUTPUTS/openbind_xx01zvns2b_c2_elabs_1LOUTNY.sdf', '/opt/xchem-fragalysis-2/maxwin/BulkDock/OUTPUTS/openbind_xx01zvns2b_c2_elabs_1LSYIIV.sdf']

>  <tags>  (862) 
syndirella_placed,openbind_xx01zvns2b_c2_elabs,openbind_xx01zvns2b_c2_elabs_scored_6.2plus,syndirella_product,openbind_xx01zvns2b_c2_elabs_scored,openbind_xx01zvns2b_c2_elabs_scored_top80percent,BulkDock Fragalysis export

>  <subsites>  (862) 
1 - Z4590/B/203/1

>  <smiles>  (862) 
COc1ccc(-n2nc(C)c3c(C(=O)Nc4ccc5c(c4)CNC5=O)cc(C4CC4)nc32)cc1

>  <HIPPO Pose ID>  (862) 
125855

>  <energy_score>  (862) 
-39.556017

>  <inchikey>  (862) 
OFWCZXCLNRXXST-UHFFFAOYSA-N

>  <gnina_score_min>  (862) 
6.816

>  <gnina_score>  (862) 
6.702

>  <ref_mols>  (862) 
Z3559a

>  <HIPPO Compound ID>  (862) 
187994

>  <distance_score>  (862) 
0.522314

>  <rmsd(smina/fragmenstein)>  (862) 
0.733

>  <ref_pdb>  (862) 
Z3559a

>  <inspiration_score>  (862) 
None

$$$$
P125856
     RDKit          3D

 34 39  0  0  0  0  0  0  0  0999 V2000
   -1.4440    5.3475  -23.2538 C   0  0  0  0  0  0  0  0  0  0  0  0
   -2.8115    5.0706  -22.9796 O   0  0  0  0  0  0  0  0  0  0  0  0
   -3.2158    5.2047  -21.6804 C   0  0  0  0  0  0  0  0  0  0  0  0
   -2.4061    5.5493  -20.6000 C   0  0  0  0  0  0  0  0  0  0  0  0
   -2.9525    5.6542  -19.3143 C   0  0  0  0  0  0  0  0  0  0  0  0
   -4.3139    5.3921  -19.0878 C   0  0  0  0  0  0  0  0  0  0  0  0
   -4.8240    5.4585  -17.7568 N   0  0  0  0  0  0  0  0  0  0  0  0
   -4.0436    5.9766  -16.7626 N   0  0  0  0  0  0  0  0  0  0  0  0
   -4.8090    5.9476  -15.6668 C   0  0  0  0  0  0  0  0  0  0  0  0
   -4.2584    6.4615  -14.3864 C   0  0  0  0  0  0  0  0  0  0  0  0
   -6.0802    5.3786  -15.9213 C   0  0  0  0  0  0  0  0  0  0  0  0
   -7.2589    5.0784  -15.2214 C   0  0  0  0  0  0  0  0  0  0  0  0
   -7.3994    5.5278  -13.8244 C   0  0  0  0  0  0  0  0  0  0  0  0
   -7.1646    6.6419  -13.5728 O   0  0  0  0  0  0  0  0  0  0  0  0
   -7.7569    4.3491  -12.8994 N   0  0  0  0  0  0  0  0  0  0  0  0
   -7.9856    4.3139  -11.5291 C   0  0  0  0  0  0  0  0  0  0  0  0
   -7.7843    5.4536  -10.7296 C   0  0  0  0  0  0  0  0  0  0  0  0
   -7.9898    5.4080   -9.3482 C   0  0  0  0  0  0  0  0  0  0  0  0
   -8.4249    4.2186   -8.8014 C   0  0  0  0  0  0  0  0  0  0  0  0
   -8.6364    3.0917   -9.5975 C   0  0  0  0  0  0  0  0  0  0  0  0
   -8.4036    3.1123  -10.9585 C   0  0  0  0  0  0  0  0  0  0  0  0
   -9.1353    1.9756   -8.7395 C   0  0  0  0  0  0  0  0  0  0  0  0
   -9.5908    2.6644   -7.5122 N   0  0  0  0  0  0  0  0  0  0  0  0
   -9.5044    1.8055   -6.3560 C   0  0  0  0  0  0  0  0  0  0  0  0
   -8.7618    3.8783   -7.3856 C   0  0  0  0  0  0  0  0  0  0  0  0
   -8.2987    4.4165  -15.8839 C   0  0  0  0  0  0  0  0  0  0  0  0
   -8.1478    4.0953  -17.2295 C   0  0  0  0  0  0  0  0  0  0  0  0
   -9.2224    3.3749  -18.0056 C   0  0  0  0  0  0  0  0  0  0  0  0
  -10.6015    3.9354  -18.2317 C   0  0  0  0  0  0  0  0  0  0  0  0
   -9.6030    3.9881  -19.3350 C   0  0  0  0  0  0  0  0  0  0  0  0
   -7.0370    4.4115  -17.9294 N   0  0  0  0  0  0  0  0  0  0  0  0
   -6.0545    5.0424  -17.2632 C   0  0  0  0  0  0  0  0  0  0  0  0
   -5.1225    5.0523  -20.1753 C   0  0  0  0  0  0  0  0  0  0  0  0
   -4.5723    4.9625  -21.4598 C   0  0  0  0  0  0  0  0  0  0  0  0
  1  2  1  0
  2  3  1  0
  3  4  2  0
  4  5  1  0
  5  6  2  0
  6  7  1  0
  7  8  1  0
  8  9  2  0
  9 10  1  0
  9 11  1  0
 11 12  2  0
 12 13  1  0
 13 14  2  0
 13 15  1  0
 15 16  1  0
 16 17  2  0
 17 18  1  0
 18 19  2  0
 19 20  1  0
 20 21  2  0
 20 22  1  0
 22 23  1  0
 23 24  1  0
 23 25  1  0
 12 26  1  0
 26 27  2  0
 27 28  1  0
 28 29  1  0
 29 30  1  0
 27 31  1  0
 31 32  2  0
  6 33  1  0
 33 34  2  0
 34  3  1  0
 32  7  1  0
 32 11  1  0
 21 16  1  0
 30 28  1  0
 25 19  1  0
M  END
>  <name>  (863) 
P125856

>  <alias>  (863) 
None

>  <smina_score_min>  (863) 
-9.639

>  <exports>  (863) 
['/opt/xchem-fragalysis-2/maxwin/BulkDock/OUTPUTS/openbind_xx01zvns2b_c2_elabs_1LOUTNY.sdf', '/opt/xchem-fragalysis-2/maxwin/BulkDock/OUTPUTS/openbind_xx01zvns2b_c2_elabs_1LSYIIV.sdf']

>  <tags>  (863) 
syndirella_placed,openbind_xx01zvns2b_c2_elabs,openbind_xx01zvns2b_c2_elabs_scored_6.2plus,syndirella_product,openbind_xx01zvns2b_c2_elabs_scored,openbind_xx01zvns2b_c2_elabs_scored_top80percent,BulkDock Fragalysis export

>  <subsites>  (863) 
1 - Z4590/B/203/1

>  <smiles>  (863) 
COc1ccc(-n2nc(C)c3c(C(=O)Nc4ccc5c(c4)CN(C)C5)cc(C4CC4)nc32)cc1

>  <HIPPO Pose ID>  (863) 
125856

>  <energy_score>  (863) 
-64.852972

>  <inchikey>  (863) 
QKLWWTHLWCIPRQ-UHFFFAOYSA-N

>  <gnina_score_min>  (863) 
6.801

>  <gnina_score>  (863) 
6.722

>  <ref_mols>  (863) 
Z3559a

>  <HIPPO Compound ID>  (863) 
187995

>  <distance_score>  (863) 
0.622877

>  <rmsd(smina/fragmenstein)>  (863) 
0.62

>  <ref_pdb>  (863) 
Z3559a

>  <inspiration_score>  (863) 
None

$$$$
P125857
     RDKit          3D

 34 39  0  0  0  0  0  0  0  0999 V2000
  -10.8483    2.9312   -5.4531 C   0  0  0  0  0  0  0  0  0  0  0  0
   -9.6166    2.2829   -6.0528 C   0  0  0  0  0  0  0  0  0  0  0  0
   -9.2096    2.9133   -7.2797 N   0  0  0  0  0  0  0  0  0  0  0  0
   -9.1466    2.1920   -8.5421 C   0  0  0  0  0  0  0  0  0  0  0  0
   -8.5781    3.2244   -9.4581 C   0  0  0  0  0  0  0  0  0  0  0  0
   -8.3756    3.1891  -10.8268 C   0  0  0  0  0  0  0  0  0  0  0  0
   -7.8248    4.3234  -11.4376 C   0  0  0  0  0  0  0  0  0  0  0  0
   -7.6081    4.3135  -12.8109 N   0  0  0  0  0  0  0  0  0  0  0  0
   -6.9824    5.3821  -13.7363 C   0  0  0  0  0  0  0  0  0  0  0  0
   -6.4814    6.4052  -13.4803 O   0  0  0  0  0  0  0  0  0  0  0  0
   -7.0597    4.9918  -15.1596 C   0  0  0  0  0  0  0  0  0  0  0  0
   -8.2176    4.4362  -15.7200 C   0  0  0  0  0  0  0  0  0  0  0  0
   -8.2932    4.2200  -17.0994 C   0  0  0  0  0  0  0  0  0  0  0  0
   -9.5839    3.7366  -17.7160 C   0  0  0  0  0  0  0  0  0  0  0  0
   -9.8548    3.9287  -19.1869 C   0  0  0  0  0  0  0  0  0  0  0  0
   -9.5629    2.5573  -18.6553 C   0  0  0  0  0  0  0  0  0  0  0  0
   -7.2675    4.5007  -17.9345 N   0  0  0  0  0  0  0  0  0  0  0  0
   -6.1900    5.0488  -17.3590 C   0  0  0  0  0  0  0  0  0  0  0  0
   -6.0071    5.3213  -16.0201 C   0  0  0  0  0  0  0  0  0  0  0  0
   -4.7313    5.9201  -15.9617 C   0  0  0  0  0  0  0  0  0  0  0  0
   -4.1539    6.0388  -17.1644 N   0  0  0  0  0  0  0  0  0  0  0  0
   -5.0705    5.5017  -18.0084 N   0  0  0  0  0  0  0  0  0  0  0  0
   -4.9512    5.5122  -19.4651 C   0  0  0  0  0  0  0  0  0  0  0  0
   -3.6545    6.0246  -20.0417 C   0  0  0  0  0  0  0  0  0  0  0  0
   -2.4175    5.4621  -19.7112 C   0  0  0  0  0  0  0  0  0  0  0  0
   -1.2742    5.9520  -20.3257 C   0  0  0  0  0  0  0  0  0  0  0  0
   -1.2783    6.9389  -21.2491 N   0  0  0  0  0  0  0  0  0  0  0  0
   -2.4797    7.4610  -21.5654 C   0  0  0  0  0  0  0  0  0  0  0  0
   -3.6761    7.0426  -21.0031 C   0  0  0  0  0  0  0  0  0  0  0  0
   -7.4939    5.4637  -10.6793 C   0  0  0  0  0  0  0  0  0  0  0  0
   -7.7014    5.4934   -9.3029 C   0  0  0  0  0  0  0  0  0  0  0  0
   -8.2385    4.3636   -8.7283 C   0  0  0  0  0  0  0  0  0  0  0  0
   -8.5910    4.1438   -7.3273 C   0  0  0  0  0  0  0  0  0  0  0  0
   -8.3748    4.9302   -6.4236 O   0  0  0  0  0  0  0  0  0  0  0  0
  1  2  1  0
  2  3  1  0
  3  4  1  0
  4  5  1  0
  5  6  2  0
  6  7  1  0
  7  8  1  0
  8  9  1  0
  9 10  2  0
  9 11  1  0
 11 12  2  0
 12 13  1  0
 13 14  1  0
 14 15  1  0
 15 16  1  0
 13 17  2  0
 17 18  1  0
 18 19  2  0
 19 20  1  0
 20 21  2  0
 21 22  1  0
 22 23  1  0
 23 24  1  0
 24 25  2  0
 25 26  1  0
 26 27  2  0
 27 28  1  0
 28 29  2  0
  7 30  2  0
 30 31  1  0
 31 32  2  0
 32 33  1  0
 33 34  2  0
 33  3  1  0
 32  5  1  0
 19 11  1  0
 29 24  1  0
 16 14  1  0
 22 18  1  0
M  END
>  <name>  (864) 
P125857

>  <alias>  (864) 
None

>  <smina_score_min>  (864) 
-9.328

>  <exports>  (864) 
['/opt/xchem-fragalysis-2/maxwin/BulkDock/OUTPUTS/openbind_xx01zvns2b_c2_elabs_1LOUTNY.sdf', '/opt/xchem-fragalysis-2/maxwin/BulkDock/OUTPUTS/openbind_xx01zvns2b_c2_elabs_1LSYIIV.sdf']

>  <tags>  (864) 
syndirella_placed,openbind_xx01zvns2b_c2_elabs,openbind_xx01zvns2b_c2_elabs_scored_6.2plus,syndirella_product,openbind_xx01zvns2b_c2_elabs_scored,openbind_xx01zvns2b_c2_elabs_scored_top80percent,BulkDock Fragalysis export

>  <subsites>  (864) 
1 - Z4590/B/203/1

>  <smiles>  (864) 
CCN1Cc2cc(NC(=O)c3cc(C4CC4)nc4c3cnn4Cc3ccncc3)ccc2C1=O

>  <HIPPO Pose ID>  (864) 
125857

>  <energy_score>  (864) 
-13.783467

>  <inchikey>  (864) 
SRNNKXXWJTYPKP-UHFFFAOYSA-N

>  <gnina_score_min>  (864) 
6.516

>  <gnina_score>  (864) 
6.473

>  <ref_mols>  (864) 
Z3559a

>  <HIPPO Compound ID>  (864) 
187996

>  <distance_score>  (864) 
0.470733

>  <rmsd(smina/fragmenstein)>  (864) 
0.318

>  <ref_pdb>  (864) 
Z3559a

>  <inspiration_score>  (864) 
None

$$$$
P125859
     RDKit          3D

 34 39  0  0  0  0  0  0  0  0999 V2000
  -10.0671    2.0890   -6.0404 C   0  0  0  0  0  0  0  0  0  0  0  0
   -9.3327    2.6351   -7.1511 N   0  0  0  0  0  0  0  0  0  0  0  0
   -8.6735    3.8290   -7.1234 C   0  0  0  0  0  0  0  0  0  0  0  0
   -8.4772    4.5940   -6.1956 O   0  0  0  0  0  0  0  0  0  0  0  0
   -8.2769    4.1083   -8.5019 C   0  0  0  0  0  0  0  0  0  0  0  0
   -7.6690    5.2204   -9.0413 C   0  0  0  0  0  0  0  0  0  0  0  0
   -7.5159    5.2512  -10.4311 C   0  0  0  0  0  0  0  0  0  0  0  0
   -7.9694    4.1885  -11.2438 C   0  0  0  0  0  0  0  0  0  0  0  0
   -7.8355    4.2578  -12.6288 N   0  0  0  0  0  0  0  0  0  0  0  0
   -7.2206    5.3588  -13.5248 C   0  0  0  0  0  0  0  0  0  0  0  0
   -6.8002    6.4130  -13.2481 O   0  0  0  0  0  0  0  0  0  0  0  0
   -7.2067    4.9847  -14.9560 C   0  0  0  0  0  0  0  0  0  0  0  0
   -8.3177    4.4481  -15.6137 C   0  0  0  0  0  0  0  0  0  0  0  0
   -8.2864    4.2544  -17.0010 C   0  0  0  0  0  0  0  0  0  0  0  0
   -9.5378    3.7806  -17.7112 C   0  0  0  0  0  0  0  0  0  0  0  0
   -9.6946    3.9564  -19.2006 C   0  0  0  0  0  0  0  0  0  0  0  0
   -9.4749    2.5877  -18.6313 C   0  0  0  0  0  0  0  0  0  0  0  0
   -7.1966    4.5464  -17.7551 N   0  0  0  0  0  0  0  0  0  0  0  0
   -6.1576    5.0681  -17.0853 C   0  0  0  0  0  0  0  0  0  0  0  0
   -6.0834    5.3055  -15.7260 C   0  0  0  0  0  0  0  0  0  0  0  0
   -4.7977    5.8515  -15.5316 C   0  0  0  0  0  0  0  0  0  0  0  0
   -4.0947    5.9424  -16.6653 N   0  0  0  0  0  0  0  0  0  0  0  0
   -4.9656    5.4957  -17.6094 N   0  0  0  0  0  0  0  0  0  0  0  0
   -4.5605    5.4283  -19.0064 C   0  0  0  0  0  0  0  0  0  0  0  0
   -4.6592    6.7417  -19.7478 C   0  0  0  0  0  0  0  0  0  0  0  0
   -4.2634    7.9636  -19.1937 C   0  0  0  0  0  0  0  0  0  0  0  0
   -4.3457    9.1119  -19.9678 C   0  0  0  0  0  0  0  0  0  0  0  0
   -4.7797    9.1303  -21.2459 N   0  0  0  0  0  0  0  0  0  0  0  0
   -5.1113    7.9367  -21.7819 C   0  0  0  0  0  0  0  0  0  0  0  0
   -5.0715    6.7393  -21.0847 C   0  0  0  0  0  0  0  0  0  0  0  0
   -8.5757    3.0686  -10.6696 C   0  0  0  0  0  0  0  0  0  0  0  0
   -8.7172    3.0645   -9.2926 C   0  0  0  0  0  0  0  0  0  0  0  0
   -9.4118    2.1258   -8.4178 C   0  0  0  0  0  0  0  0  0  0  0  0
  -10.0051    1.1460   -8.8190 O   0  0  0  0  0  0  0  0  0  0  0  0
  1  2  1  0
  2  3  1  0
  3  4  2  0
  3  5  1  0
  5  6  2  0
  6  7  1  0
  7  8  2  0
  8  9  1  0
  9 10  1  0
 10 11  2  0
 10 12  1  0
 12 13  2  0
 13 14  1  0
 14 15  1  0
 15 16  1  0
 16 17  1  0
 14 18  2  0
 18 19  1  0
 19 20  2  0
 20 21  1  0
 21 22  2  0
 22 23  1  0
 23 24  1  0
 24 25  1  0
 25 26  2  0
 26 27  1  0
 27 28  2  0
 28 29  1  0
 29 30  2  0
  8 31  1  0
 31 32  2  0
 32 33  1  0
 33 34  2  0
 33  2  1  0
 32  5  1  0
 20 12  1  0
 30 25  1  0
 17 15  1  0
 23 19  1  0
M  END
>  <name>  (865) 
P125859

>  <alias>  (865) 
None

>  <smina_score_min>  (865) 
-9.158

>  <exports>  (865) 
['/opt/xchem-fragalysis-2/maxwin/BulkDock/OUTPUTS/openbind_xx01zvns2b_c2_elabs_1LOUTNY.sdf', '/opt/xchem-fragalysis-2/maxwin/BulkDock/OUTPUTS/openbind_xx01zvns2b_c2_elabs_1LSYIIV.sdf']

>  <tags>  (865) 
syndirella_placed,openbind_xx01zvns2b_c2_elabs,openbind_xx01zvns2b_c2_elabs_scored_6.2plus,syndirella_product,openbind_xx01zvns2b_c2_elabs_scored,openbind_xx01zvns2b_c2_elabs_scored_top80percent,BulkDock Fragalysis export

>  <subsites>  (865) 
1 - Z4590/B/203/1

>  <smiles>  (865) 
CN1C(=O)c2ccc(NC(=O)c3cc(C4CC4)nc4c3cnn4Cc3ccncc3)cc2C1=O

>  <HIPPO Pose ID>  (865) 
125859

>  <energy_score>  (865) 
-31.779743

>  <inchikey>  (865) 
VSDXKMLFQYWELI-UHFFFAOYSA-N

>  <gnina_score_min>  (865) 
6.288

>  <gnina_score>  (865) 
6.456

>  <ref_mols>  (865) 
Z3559a

>  <HIPPO Compound ID>  (865) 
188000

>  <distance_score>  (865) 
0.367155

>  <rmsd(smina/fragmenstein)>  (865) 
0.491

>  <ref_pdb>  (865) 
Z3559a

>  <inspiration_score>  (865) 
None

$$$$
P125860
     RDKit          3D

 34 39  0  0  0  0  0  0  0  0999 V2000
  -11.4695    2.4471   -4.9051 C   0  0  0  0  0  0  0  0  0  0  0  0
  -10.7266    3.0052   -6.0841 C   0  0  0  0  0  0  0  0  0  0  0  0
   -9.2656    2.5990   -6.0658 C   0  0  0  0  0  0  0  0  0  0  0  0
   -8.5116    3.0887   -7.1884 N   0  0  0  0  0  0  0  0  0  0  0  0
   -8.3682    4.5288   -7.3227 C   0  0  0  0  0  0  0  0  0  0  0  0
   -8.1481    4.7278   -8.7809 C   0  0  0  0  0  0  0  0  0  0  0  0
   -7.7818    5.8833   -9.4337 C   0  0  0  0  0  0  0  0  0  0  0  0
   -7.6096    5.8175  -10.8115 C   0  0  0  0  0  0  0  0  0  0  0  0
   -7.8099    4.6142  -11.5097 C   0  0  0  0  0  0  0  0  0  0  0  0
   -7.5643    4.5598  -12.8746 N   0  0  0  0  0  0  0  0  0  0  0  0
   -7.0743    5.6521  -13.8499 C   0  0  0  0  0  0  0  0  0  0  0  0
   -6.7268    6.7477  -13.6463 O   0  0  0  0  0  0  0  0  0  0  0  0
   -7.0350    5.1636  -15.2379 C   0  0  0  0  0  0  0  0  0  0  0  0
   -8.0907    4.4435  -15.8037 C   0  0  0  0  0  0  0  0  0  0  0  0
   -8.0376    4.0913  -17.1534 C   0  0  0  0  0  0  0  0  0  0  0  0
   -9.1090    3.2156  -17.7303 C   0  0  0  0  0  0  0  0  0  0  0  0
   -9.1480    2.9476  -19.2082 C   0  0  0  0  0  0  0  0  0  0  0  0
  -10.2253    3.7748  -18.5738 C   0  0  0  0  0  0  0  0  0  0  0  0
   -7.0237    4.4573  -17.9691 N   0  0  0  0  0  0  0  0  0  0  0  0
   -6.0431    5.1536  -17.3831 C   0  0  0  0  0  0  0  0  0  0  0  0
   -5.9615    5.5219  -16.0576 C   0  0  0  0  0  0  0  0  0  0  0  0
   -4.7431    6.2242  -15.9666 C   0  0  0  0  0  0  0  0  0  0  0  0
   -4.1108    6.3230  -17.1425 N   0  0  0  0  0  0  0  0  0  0  0  0
   -4.9358    5.6717  -18.0003 N   0  0  0  0  0  0  0  0  0  0  0  0
   -4.7321    5.6298  -19.4448 C   0  0  0  0  0  0  0  0  0  0  0  0
   -3.4278    6.2059  -19.9356 C   0  0  0  0  0  0  0  0  0  0  0  0
   -2.2159    5.5350  -19.7417 C   0  0  0  0  0  0  0  0  0  0  0  0
   -1.0522    6.1061  -20.2353 C   0  0  0  0  0  0  0  0  0  0  0  0
   -1.0130    7.2782  -20.9071 N   0  0  0  0  0  0  0  0  0  0  0  0
   -2.1901    7.9134  -21.0769 C   0  0  0  0  0  0  0  0  0  0  0  0
   -3.4049    7.4265  -20.6191 C   0  0  0  0  0  0  0  0  0  0  0  0
   -8.2237    3.4588  -10.8425 C   0  0  0  0  0  0  0  0  0  0  0  0
   -8.3798    3.5348   -9.4706 C   0  0  0  0  0  0  0  0  0  0  0  0
   -8.8012    2.4794   -8.4985 C   0  0  0  0  0  0  0  0  0  0  0  0
  1  2  1  0
  2  3  1  0
  3  4  1  0
  4  5  1  0
  5  6  1  0
  6  7  2  0
  7  8  1  0
  8  9  2  0
  9 10  1  0
 10 11  1  0
 11 12  2  0
 11 13  1  0
 13 14  2  0
 14 15  1  0
 15 16  1  0
 16 17  1  0
 17 18  1  0
 15 19  2  0
 19 20  1  0
 20 21  2  0
 21 22  1  0
 22 23  2  0
 23 24  1  0
 24 25  1  0
 25 26  1  0
 26 27  2  0
 27 28  1  0
 28 29  2  0
 29 30  1  0
 30 31  2  0
  9 32  1  0
 32 33  2  0
 33 34  1  0
 34  4  1  0
 33  6  1  0
 21 13  1  0
 31 26  1  0
 18 16  1  0
 24 20  1  0
M  END
>  <name>  (866) 
P125860

>  <alias>  (866) 
None

>  <smina_score_min>  (866) 
-8.769

>  <exports>  (866) 
['/opt/xchem-fragalysis-2/maxwin/BulkDock/OUTPUTS/openbind_xx01zvns2b_c2_elabs_1LOUTNY.sdf', '/opt/xchem-fragalysis-2/maxwin/BulkDock/OUTPUTS/openbind_xx01zvns2b_c2_elabs_1LSYIIV.sdf']

>  <tags>  (866) 
syndirella_placed,openbind_xx01zvns2b_c2_elabs,openbind_xx01zvns2b_c2_elabs_scored_6.2plus,syndirella_product,openbind_xx01zvns2b_c2_elabs_scored,openbind_xx01zvns2b_c2_elabs_scored_top80percent,BulkDock Fragalysis export

>  <subsites>  (866) 
1 - Z4590/B/203/1

>  <smiles>  (866) 
CCCN1Cc2ccc(NC(=O)c3cc(C4CC4)nc4c3cnn4Cc3ccncc3)cc2C1

>  <HIPPO Pose ID>  (866) 
125860

>  <energy_score>  (866) 
-58.71642

>  <inchikey>  (866) 
GRLRDMZHJOAVCC-UHFFFAOYSA-N

>  <gnina_score_min>  (866) 
6.664

>  <gnina_score>  (866) 
6.444

>  <ref_mols>  (866) 
Z3559a

>  <HIPPO Compound ID>  (866) 
188002

>  <distance_score>  (866) 
0.720671

>  <rmsd(smina/fragmenstein)>  (866) 
0.634

>  <ref_pdb>  (866) 
Z3559a

>  <inspiration_score>  (866) 
None

$$$$
P125862
     RDKit          3D

 34 39  0  0  0  0  0  0  0  0999 V2000
  -10.7331    2.0663   -5.8590 C   0  0  0  0  0  0  0  0  0  0  0  0
   -9.3096    2.5772   -6.0232 C   0  0  0  0  0  0  0  0  0  0  0  0
   -8.9925    3.4995   -4.8342 C   0  0  0  0  0  0  0  0  0  0  0  0
   -9.1059    3.2232   -7.3162 N   0  0  0  0  0  0  0  0  0  0  0  0
   -8.3540    4.4477   -7.4306 C   0  0  0  0  0  0  0  0  0  0  0  0
   -8.2049    4.6116   -8.8924 C   0  0  0  0  0  0  0  0  0  0  0  0
   -7.7130    5.6988   -9.5730 C   0  0  0  0  0  0  0  0  0  0  0  0
   -7.6637    5.6139  -10.9594 C   0  0  0  0  0  0  0  0  0  0  0  0
   -8.0679    4.4509  -11.6516 C   0  0  0  0  0  0  0  0  0  0  0  0
   -7.9221    4.4343  -13.0410 N   0  0  0  0  0  0  0  0  0  0  0  0
   -7.3863    5.5161  -14.0076 C   0  0  0  0  0  0  0  0  0  0  0  0
   -7.0552    6.6182  -13.8027 O   0  0  0  0  0  0  0  0  0  0  0  0
   -7.1730    5.0377  -15.3866 C   0  0  0  0  0  0  0  0  0  0  0  0
   -8.1758    4.4793  -16.1889 C   0  0  0  0  0  0  0  0  0  0  0  0
   -7.9349    4.2989  -17.5641 C   0  0  0  0  0  0  0  0  0  0  0  0
   -8.9549    3.8148  -18.5607 C   0  0  0  0  0  0  0  0  0  0  0  0
  -10.4179    3.6682  -18.3014 C   0  0  0  0  0  0  0  0  0  0  0  0
   -9.5378    2.4459  -18.3843 C   0  0  0  0  0  0  0  0  0  0  0  0
   -6.7538    4.6043  -18.1453 N   0  0  0  0  0  0  0  0  0  0  0  0
   -5.8329    5.1329  -17.3388 C   0  0  0  0  0  0  0  0  0  0  0  0
   -5.9487    5.3628  -15.9872 C   0  0  0  0  0  0  0  0  0  0  0  0
   -4.7102    5.9381  -15.6268 C   0  0  0  0  0  0  0  0  0  0  0  0
   -3.8656    6.0486  -16.6597 N   0  0  0  0  0  0  0  0  0  0  0  0
   -4.6009    5.5914  -17.7063 N   0  0  0  0  0  0  0  0  0  0  0  0
   -4.0592    5.5801  -19.0548 C   0  0  0  0  0  0  0  0  0  0  0  0
   -4.2015    6.9112  -19.7378 C   0  0  0  0  0  0  0  0  0  0  0  0
   -4.9147    7.1125  -20.9669 C   0  0  0  0  0  0  0  0  0  0  0  0
   -4.8486    8.4128  -21.4148 C   0  0  0  0  0  0  0  0  0  0  0  0
   -3.9713    9.4136  -20.3465 S   0  0  0  0  0  0  0  0  0  0  0  0
   -3.6374    8.0994  -19.3053 C   0  0  0  0  0  0  0  0  0  0  0  0
   -8.5670    3.3517  -10.9462 C   0  0  0  0  0  0  0  0  0  0  0  0
   -8.6462    3.4739   -9.5646 C   0  0  0  0  0  0  0  0  0  0  0  0
   -9.2184    2.5706   -8.5492 C   0  0  0  0  0  0  0  0  0  0  0  0
   -9.7265    1.4976   -8.8035 O   0  0  0  0  0  0  0  0  0  0  0  0
  1  2  1  0
  2  3  1  0
  2  4  1  0
  4  5  1  0
  5  6  1  0
  6  7  2  0
  7  8  1  0
  8  9  2  0
  9 10  1  0
 10 11  1  0
 11 12  2  0
 11 13  1  0
 13 14  2  0
 14 15  1  0
 15 16  1  0
 16 17  1  0
 17 18  1  0
 15 19  2  0
 19 20  1  0
 20 21  2  0
 21 22  1  0
 22 23  2  0
 23 24  1  0
 24 25  1  0
 25 26  1  0
 26 27  1  0
 27 28  2  0
 28 29  1  0
 29 30  1  0
  9 31  1  0
 31 32  2  0
 32 33  1  0
 33 34  2  0
 33  4  1  0
 32  6  1  0
 21 13  1  0
 30 26  2  0
 18 16  1  0
 24 20  1  0
M  END
>  <name>  (867) 
P125862

>  <alias>  (867) 
None

>  <smina_score_min>  (867) 
-9.191

>  <exports>  (867) 
['/opt/xchem-fragalysis-2/maxwin/BulkDock/OUTPUTS/openbind_xx01zvns2b_c2_elabs_1LOUTNY.sdf', '/opt/xchem-fragalysis-2/maxwin/BulkDock/OUTPUTS/openbind_xx01zvns2b_c2_elabs_1LSYIIV.sdf']

>  <tags>  (867) 
syndirella_placed,openbind_xx01zvns2b_c2_elabs,openbind_xx01zvns2b_c2_elabs_scored_6.2plus,syndirella_product,openbind_xx01zvns2b_c2_elabs_scored,openbind_xx01zvns2b_c2_elabs_scored_top80percent,BulkDock Fragalysis export

>  <subsites>  (867) 
1 - Z4590/B/203/1

>  <smiles>  (867) 
CC(C)N1Cc2ccc(NC(=O)c3cc(C4CC4)nc4c3cnn4Cc3ccsc3)cc2C1=O

>  <HIPPO Pose ID>  (867) 
125862

>  <energy_score>  (867) 
-31.307134

>  <inchikey>  (867) 
FVHBONDMRWWPIY-UHFFFAOYSA-N

>  <gnina_score_min>  (867) 
6.593

>  <gnina_score>  (867) 
6.54

>  <ref_mols>  (867) 
Z3559a

>  <HIPPO Compound ID>  (867) 
188004

>  <distance_score>  (867) 
0.755154

>  <rmsd(smina/fragmenstein)>  (867) 
0.64

>  <ref_pdb>  (867) 
Z3559a

>  <inspiration_score>  (867) 
None

$$$$
P125863
     RDKit          3D

 34 39  0  0  0  0  0  0  0  0999 V2000
   -6.7799    6.5266  -13.4566 O   0  0  0  0  0  0  0  0  0  0  0  0
   -7.2103    5.4552  -13.6400 C   0  0  0  0  0  0  0  0  0  0  0  0
   -7.8356    4.4421  -12.6503 N   0  0  0  0  0  0  0  0  0  0  0  0
   -7.9701    4.4962  -11.2627 C   0  0  0  0  0  0  0  0  0  0  0  0
   -7.6273    5.6959  -10.6128 C   0  0  0  0  0  0  0  0  0  0  0  0
   -7.7314    5.8267   -9.2361 C   0  0  0  0  0  0  0  0  0  0  0  0
   -8.1831    4.7390   -8.5241 C   0  0  0  0  0  0  0  0  0  0  0  0
   -8.5374    3.5385   -9.1440 C   0  0  0  0  0  0  0  0  0  0  0  0
   -8.4364    3.3982  -10.5254 C   0  0  0  0  0  0  0  0  0  0  0  0
   -9.0536    2.5882   -8.0934 C   0  0  0  0  0  0  0  0  0  0  0  0
   -8.7754    3.2793   -6.8141 N   0  0  0  0  0  0  0  0  0  0  0  0
   -9.6171    3.0713   -5.6421 C   0  0  0  0  0  0  0  0  0  0  0  0
  -10.9199    2.2987   -5.7839 C   0  0  0  0  0  0  0  0  0  0  0  0
  -10.7147    1.0360   -6.2070 F   0  0  0  0  0  0  0  0  0  0  0  0
  -11.5664    2.2426   -4.5926 F   0  0  0  0  0  0  0  0  0  0  0  0
   -8.4225    4.6675   -7.0609 C   0  0  0  0  0  0  0  0  0  0  0  0
   -7.1827    4.9802  -15.0350 C   0  0  0  0  0  0  0  0  0  0  0  0
   -8.2999    4.4351  -15.6682 C   0  0  0  0  0  0  0  0  0  0  0  0
   -8.2809    4.2288  -17.0537 C   0  0  0  0  0  0  0  0  0  0  0  0
   -9.5440    3.7591  -17.7431 C   0  0  0  0  0  0  0  0  0  0  0  0
   -9.4984    2.5608  -18.6559 C   0  0  0  0  0  0  0  0  0  0  0  0
   -9.7214    3.9275  -19.2302 C   0  0  0  0  0  0  0  0  0  0  0  0
   -7.1988    4.5127  -17.8281 N   0  0  0  0  0  0  0  0  0  0  0  0
   -6.1485    5.0320  -17.1730 C   0  0  0  0  0  0  0  0  0  0  0  0
   -6.0588    5.2732  -15.8161 C   0  0  0  0  0  0  0  0  0  0  0  0
   -4.7667    5.8083  -15.6337 C   0  0  0  0  0  0  0  0  0  0  0  0
   -4.0675    5.8743  -16.7712 N   0  0  0  0  0  0  0  0  0  0  0  0
   -4.9643    5.4670  -17.7106 N   0  0  0  0  0  0  0  0  0  0  0  0
   -4.5893    5.4382  -19.1167 C   0  0  0  0  0  0  0  0  0  0  0  0
   -4.4654    6.8095  -19.7307 C   0  0  0  0  0  0  0  0  0  0  0  0
   -3.7130    7.9102  -19.1912 C   0  0  0  0  0  0  0  0  0  0  0  0
   -3.7459    9.0304  -19.9911 C   0  0  0  0  0  0  0  0  0  0  0  0
   -4.6545    8.7717  -21.4111 S   0  0  0  0  0  0  0  0  0  0  0  0
   -5.0160    7.1650  -20.9496 C   0  0  0  0  0  0  0  0  0  0  0  0
  1  2  2  0
  2  3  1  0
  3  4  1  0
  4  5  2  0
  5  6  1  0
  6  7  2  0
  7  8  1  0
  8  9  2  0
  8 10  1  0
 10 11  1  0
 11 12  1  0
 12 13  1  0
 13 14  1  0
 13 15  1  0
 11 16  1  0
  2 17  1  0
 17 18  2  0
 18 19  1  0
 19 20  1  0
 20 21  1  0
 21 22  1  0
 19 23  2  0
 23 24  1  0
 24 25  2  0
 25 26  1  0
 26 27  2  0
 27 28  1  0
 28 29  1  0
 29 30  1  0
 30 31  1  0
 31 32  2  0
 32 33  1  0
 33 34  1  0
  9  4  1  0
 25 17  1  0
 34 30  2  0
 16  7  1  0
 22 20  1  0
 28 24  1  0
M  END
>  <name>  (868) 
P125863

>  <alias>  (868) 
None

>  <smina_score_min>  (868) 
-8.627

>  <exports>  (868) 
['/opt/xchem-fragalysis-2/maxwin/BulkDock/OUTPUTS/openbind_xx01zvns2b_c2_elabs_1LOUTNY.sdf', '/opt/xchem-fragalysis-2/maxwin/BulkDock/OUTPUTS/openbind_xx01zvns2b_c2_elabs_1LSYIIV.sdf']

>  <tags>  (868) 
syndirella_placed,openbind_xx01zvns2b_c2_elabs,openbind_xx01zvns2b_c2_elabs_scored_6.2plus,syndirella_product,openbind_xx01zvns2b_c2_elabs_scored,openbind_xx01zvns2b_c2_elabs_scored_top80percent,BulkDock Fragalysis export

>  <subsites>  (868) 
1 - Z4590/B/203/1

>  <smiles>  (868) 
O=C(Nc1ccc2c(c1)CN(CC(F)F)C2)c1cc(C2CC2)nc2c1cnn2Cc1ccsc1

>  <HIPPO Pose ID>  (868) 
125863

>  <energy_score>  (868) 
-51.936069

>  <inchikey>  (868) 
DQPUHQFRFNKTID-UHFFFAOYSA-N

>  <gnina_score_min>  (868) 
6.451

>  <gnina_score>  (868) 
6.445

>  <ref_mols>  (868) 
Z3559a

>  <HIPPO Compound ID>  (868) 
188005

>  <distance_score>  (868) 
0.571873

>  <rmsd(smina/fragmenstein)>  (868) 
0.571

>  <ref_pdb>  (868) 
Z3559a

>  <inspiration_score>  (868) 
None

$$$$
P125864
     RDKit          3D

 34 39  0  0  0  0  0  0  0  0999 V2000
   -7.1529    6.6399  -13.5900 O   0  0  0  0  0  0  0  0  0  0  0  0
   -7.3500    5.5184  -13.8406 C   0  0  0  0  0  0  0  0  0  0  0  0
   -7.7742    4.3525  -12.9308 N   0  0  0  0  0  0  0  0  0  0  0  0
   -7.9476    4.2995  -11.5555 C   0  0  0  0  0  0  0  0  0  0  0  0
   -7.6893    5.4275  -10.7541 C   0  0  0  0  0  0  0  0  0  0  0  0
   -7.8805    5.3862   -9.3733 C   0  0  0  0  0  0  0  0  0  0  0  0
   -8.3460    4.2088   -8.8304 C   0  0  0  0  0  0  0  0  0  0  0  0
   -8.5922    3.0848   -9.6253 C   0  0  0  0  0  0  0  0  0  0  0  0
   -8.3875    3.1056  -10.9886 C   0  0  0  0  0  0  0  0  0  0  0  0
   -9.1192    1.9855   -8.7630 C   0  0  0  0  0  0  0  0  0  0  0  0
   -9.5797    2.7114   -7.5714 N   0  0  0  0  0  0  0  0  0  0  0  0
   -9.6817    1.8780   -6.3828 C   0  0  0  0  0  0  0  0  0  0  0  0
  -10.1845    2.6176   -5.1380 C   0  0  0  0  0  0  0  0  0  0  0  0
   -9.2018    3.4043   -4.6151 F   0  0  0  0  0  0  0  0  0  0  0  0
  -11.2107    3.4540   -5.4424 F   0  0  0  0  0  0  0  0  0  0  0  0
   -8.7133    3.8902   -7.4187 C   0  0  0  0  0  0  0  0  0  0  0  0
   -7.1688    5.0779  -15.2341 C   0  0  0  0  0  0  0  0  0  0  0  0
   -8.1463    4.3809  -15.9411 C   0  0  0  0  0  0  0  0  0  0  0  0
   -7.9505    4.1320  -17.3004 C   0  0  0  0  0  0  0  0  0  0  0  0
   -9.0016    3.3752  -18.0822 C   0  0  0  0  0  0  0  0  0  0  0  0
   -9.4273    3.9706  -19.3966 C   0  0  0  0  0  0  0  0  0  0  0  0
  -10.4084    3.8949  -18.2787 C   0  0  0  0  0  0  0  0  0  0  0  0
   -6.8485    4.5550  -17.9864 N   0  0  0  0  0  0  0  0  0  0  0  0
   -5.9371    5.2334  -17.2647 C   0  0  0  0  0  0  0  0  0  0  0  0
   -6.0182    5.4929  -15.9073 C   0  0  0  0  0  0  0  0  0  0  0  0
   -4.8394    6.1885  -15.5931 C   0  0  0  0  0  0  0  0  0  0  0  0
   -4.0703    6.3946  -16.6598 N   0  0  0  0  0  0  0  0  0  0  0  0
   -4.7878    5.8644  -17.6893 N   0  0  0  0  0  0  0  0  0  0  0  0
   -4.2831    6.1559  -19.0294 C   0  0  0  0  0  0  0  0  0  0  0  0
   -5.2743    6.0770  -20.2016 C   0  0  0  0  0  0  0  0  0  0  0  0
   -5.0832    4.8255  -21.0473 C   0  0  0  0  0  0  0  0  0  0  0  0
   -3.6704    4.7114  -21.6174 C   0  0  0  0  0  0  0  0  0  0  0  0
   -2.6002    5.3926  -20.7695 C   0  0  0  0  0  0  0  0  0  0  0  0
   -2.9578    5.4178  -19.2907 C   0  0  0  0  0  0  0  0  0  0  0  0
  1  2  2  0
  2  3  1  0
  3  4  1  0
  4  5  2  0
  5  6  1  0
  6  7  2  0
  7  8  1  0
  8  9  2  0
  8 10  1  0
 10 11  1  0
 11 12  1  0
 12 13  1  0
 13 14  1  0
 13 15  1  0
 11 16  1  0
  2 17  1  0
 17 18  2  0
 18 19  1  0
 19 20  1  0
 20 21  1  0
 21 22  1  0
 19 23  2  0
 23 24  1  0
 24 25  2  0
 25 26  1  0
 26 27  2  0
 27 28  1  0
 28 29  1  0
 29 30  1  0
 30 31  1  0
 31 32  1  0
 32 33  1  0
 33 34  1  0
  9  4  1  0
 25 17  1  0
 34 29  1  0
 16  7  1  0
 22 20  1  0
 28 24  1  0
M  END
>  <name>  (869) 
P125864

>  <alias>  (869) 
None

>  <smina_score_min>  (869) 
-10.573

>  <exports>  (869) 
['/opt/xchem-fragalysis-2/maxwin/BulkDock/OUTPUTS/openbind_xx01zvns2b_c2_elabs_1LOUTNY.sdf', '/opt/xchem-fragalysis-2/maxwin/BulkDock/OUTPUTS/openbind_xx01zvns2b_c2_elabs_1LSYIIV.sdf']

>  <tags>  (869) 
syndirella_placed,openbind_xx01zvns2b_c2_elabs,openbind_xx01zvns2b_c2_elabs_scored_6.2plus,syndirella_product,openbind_xx01zvns2b_c2_elabs_scored,openbind_xx01zvns2b_c2_elabs_scored_top80percent,BulkDock Fragalysis export

>  <subsites>  (869) 
1 - Z4590/B/203/1

>  <smiles>  (869) 
O=C(Nc1ccc2c(c1)CN(CC(F)F)C2)c1cc(C2CC2)nc2c1cnn2C1CCCCC1

>  <HIPPO Pose ID>  (869) 
125864

>  <energy_score>  (869) 
-28.347708

>  <inchikey>  (869) 
UYGKJOVJMILAHM-UHFFFAOYSA-N

>  <gnina_score_min>  (869) 
6.838

>  <gnina_score>  (869) 
6.658

>  <ref_mols>  (869) 
Z3559a

>  <HIPPO Compound ID>  (869) 
188007

>  <distance_score>  (869) 
0.697882

>  <rmsd(smina/fragmenstein)>  (869) 
0.923

>  <ref_pdb>  (869) 
Z3559a

>  <inspiration_score>  (869) 
None

$$$$
P125866
     RDKit          3D

 34 39  0  0  0  0  0  0  0  0999 V2000
  -10.6986    3.7160   -4.1171 C   0  0  0  0  0  0  0  0  0  0  0  0
  -11.2322    2.6549   -5.0794 C   0  0  0  0  0  0  0  0  0  0  0  0
  -10.2177    2.2311   -6.1261 C   0  0  0  0  0  0  0  0  0  0  0  0
   -9.3686    3.4214   -6.5029 C   0  0  0  0  0  0  0  0  0  0  0  0
   -8.2993    3.1468   -7.4120 N   0  0  0  0  0  0  0  0  0  0  0  0
   -7.5454    4.3894   -7.6173 C   0  0  0  0  0  0  0  0  0  0  0  0
   -7.7224    4.7148   -9.0447 C   0  0  0  0  0  0  0  0  0  0  0  0
   -7.3254    5.8611   -9.6877 C   0  0  0  0  0  0  0  0  0  0  0  0
   -7.4256    5.8686  -11.0645 C   0  0  0  0  0  0  0  0  0  0  0  0
   -7.8921    4.7361  -11.7531 C   0  0  0  0  0  0  0  0  0  0  0  0
   -7.7665    4.6948  -13.1251 N   0  0  0  0  0  0  0  0  0  0  0  0
   -7.1063    5.6859  -14.0982 C   0  0  0  0  0  0  0  0  0  0  0  0
   -6.6309    6.7326  -13.9044 O   0  0  0  0  0  0  0  0  0  0  0  0
   -7.0760    5.1509  -15.4597 C   0  0  0  0  0  0  0  0  0  0  0  0
   -8.1893    4.5410  -16.0280 C   0  0  0  0  0  0  0  0  0  0  0  0
   -8.1807    4.2374  -17.3866 C   0  0  0  0  0  0  0  0  0  0  0  0
   -9.4665    3.7364  -17.9948 C   0  0  0  0  0  0  0  0  0  0  0  0
   -9.4898    2.4486  -18.7665 C   0  0  0  0  0  0  0  0  0  0  0  0
   -9.6619    3.7576  -19.4823 C   0  0  0  0  0  0  0  0  0  0  0  0
   -7.1067    4.4725  -18.1888 N   0  0  0  0  0  0  0  0  0  0  0  0
   -6.0532    5.0524  -17.5850 C   0  0  0  0  0  0  0  0  0  0  0  0
   -5.9622    5.4068  -16.2555 C   0  0  0  0  0  0  0  0  0  0  0  0
   -4.6965    6.0078  -16.1211 C   0  0  0  0  0  0  0  0  0  0  0  0
   -4.0302    6.0632  -17.2765 N   0  0  0  0  0  0  0  0  0  0  0  0
   -4.8774    5.4736  -18.1576 N   0  0  0  0  0  0  0  0  0  0  0  0
   -4.5486    5.4319  -19.5761 C   0  0  0  0  0  0  0  0  0  0  0  0
   -3.0396    5.2697  -19.8470 C   0  0  0  0  0  0  0  0  0  0  0  0
   -2.7606    5.1681  -21.3449 C   0  0  0  0  0  0  0  0  0  0  0  0
   -3.3088    6.3813  -22.0926 C   0  0  0  0  0  0  0  0  0  0  0  0
   -4.7903    6.6067  -21.8005 C   0  0  0  0  0  0  0  0  0  0  0  0
   -5.0707    6.6811  -20.2998 C   0  0  0  0  0  0  0  0  0  0  0  0
   -8.3798    3.6172  -11.0828 C   0  0  0  0  0  0  0  0  0  0  0  0
   -8.2918    3.6323   -9.7108 C   0  0  0  0  0  0  0  0  0  0  0  0
   -8.6931    2.5920   -8.7228 C   0  0  0  0  0  0  0  0  0  0  0  0
  1  2  1  0
  2  3  1  0
  3  4  1  0
  4  5  1  0
  5  6  1  0
  6  7  1  0
  7  8  2  0
  8  9  1  0
  9 10  2  0
 10 11  1  0
 11 12  1  0
 12 13  2  0
 12 14  1  0
 14 15  2  0
 15 16  1  0
 16 17  1  0
 17 18  1  0
 18 19  1  0
 16 20  2  0
 20 21  1  0
 21 22  2  0
 22 23  1  0
 23 24  2  0
 24 25  1  0
 25 26  1  0
 26 27  1  0
 27 28  1  0
 28 29  1  0
 29 30  1  0
 30 31  1  0
 10 32  1  0
 32 33  2  0
 33 34  1  0
 34  5  1  0
 33  7  1  0
 22 14  1  0
 31 26  1  0
 19 17  1  0
 25 21  1  0
M  END
>  <name>  (870) 
P125866

>  <alias>  (870) 
None

>  <smina_score_min>  (870) 
-8.761

>  <exports>  (870) 
['/opt/xchem-fragalysis-2/maxwin/BulkDock/OUTPUTS/openbind_xx01zvns2b_c2_elabs_1LOUTNY.sdf', '/opt/xchem-fragalysis-2/maxwin/BulkDock/OUTPUTS/openbind_xx01zvns2b_c2_elabs_1LSYIIV.sdf']

>  <tags>  (870) 
syndirella_placed,openbind_xx01zvns2b_c2_elabs,openbind_xx01zvns2b_c2_elabs_scored_6.2plus,syndirella_product,openbind_xx01zvns2b_c2_elabs_scored,openbind_xx01zvns2b_c2_elabs_scored_top80percent,BulkDock Fragalysis export

>  <subsites>  (870) 
1 - Z4590/B/203/1

>  <smiles>  (870) 
CCCCN1Cc2ccc(NC(=O)c3cc(C4CC4)nc4c3cnn4C3CCCCC3)cc2C1

>  <HIPPO Pose ID>  (870) 
125866

>  <energy_score>  (870) 
-46.259879

>  <inchikey>  (870) 
AYDIXBLFPNHZGM-UHFFFAOYSA-N

>  <gnina_score_min>  (870) 
6.598

>  <gnina_score>  (870) 
6.576

>  <ref_mols>  (870) 
Z3559a

>  <HIPPO Compound ID>  (870) 
188009

>  <distance_score>  (870) 
0.845397

>  <rmsd(smina/fragmenstein)>  (870) 
0.66

>  <ref_pdb>  (870) 
Z3559a

>  <inspiration_score>  (870) 
None

$$$$
P125874
     RDKit          3D

 34 39  0  0  0  0  0  0  0  0999 V2000
  -11.5554    2.4520   -4.9755 C   0  0  0  0  0  0  0  0  0  0  0  0
  -10.5254    3.3996   -4.3869 C   0  0  0  0  0  0  0  0  0  0  0  0
   -9.7271    4.0451   -5.4772 C   0  0  0  0  0  0  0  0  0  0  0  0
   -8.7646    3.0203   -6.0605 C   0  0  0  0  0  0  0  0  0  0  0  0
   -8.2034    3.4403   -7.3040 N   0  0  0  0  0  0  0  0  0  0  0  0
   -7.9448    4.8486   -7.5109 C   0  0  0  0  0  0  0  0  0  0  0  0
   -7.8834    4.9600   -8.9844 C   0  0  0  0  0  0  0  0  0  0  0  0
   -7.4742    6.0524   -9.7054 C   0  0  0  0  0  0  0  0  0  0  0  0
   -7.4351    5.9097  -11.0769 C   0  0  0  0  0  0  0  0  0  0  0  0
   -7.8031    4.6980  -11.6902 C   0  0  0  0  0  0  0  0  0  0  0  0
   -7.6393    4.5837  -13.0556 N   0  0  0  0  0  0  0  0  0  0  0  0
   -6.9525    5.5234  -14.0622 C   0  0  0  0  0  0  0  0  0  0  0  0
   -6.4827    6.5803  -13.9113 O   0  0  0  0  0  0  0  0  0  0  0  0
   -6.9930    4.9879  -15.4242 C   0  0  0  0  0  0  0  0  0  0  0  0
   -8.1565    4.4173  -15.9419 C   0  0  0  0  0  0  0  0  0  0  0  0
   -8.2569    4.1964  -17.3122 C   0  0  0  0  0  0  0  0  0  0  0  0
   -9.5661    3.7111  -17.8745 C   0  0  0  0  0  0  0  0  0  0  0  0
   -9.8613    3.8294  -19.3436 C   0  0  0  0  0  0  0  0  0  0  0  0
   -9.5874    2.4819  -18.7400 C   0  0  0  0  0  0  0  0  0  0  0  0
   -7.2592    4.5020  -18.1743 N   0  0  0  0  0  0  0  0  0  0  0  0
   -6.1589    5.0362  -17.6254 C   0  0  0  0  0  0  0  0  0  0  0  0
   -5.9420    5.2870  -16.2895 C   0  0  0  0  0  0  0  0  0  0  0  0
   -4.6703    5.8908  -16.2360 C   0  0  0  0  0  0  0  0  0  0  0  0
   -4.1384    6.0820  -17.4482 N   0  0  0  0  0  0  0  0  0  0  0  0
   -5.0877    5.5794  -18.2885 N   0  0  0  0  0  0  0  0  0  0  0  0
   -5.1412    6.0163  -19.6751 C   0  0  0  0  0  0  0  0  0  0  0  0
   -4.1698    5.3437  -20.5862 C   0  0  0  0  0  0  0  0  0  0  0  0
   -2.7437    5.3851  -20.4526 C   0  0  0  0  0  0  0  0  0  0  0  0
   -2.0977    4.7721  -21.5010 C   0  0  0  0  0  0  0  0  0  0  0  0
   -3.1938    4.1436  -22.6493 S   0  0  0  0  0  0  0  0  0  0  0  0
   -4.5372    4.6595  -21.7324 C   0  0  0  0  0  0  0  0  0  0  0  0
   -8.2867    3.6185  -10.9529 C   0  0  0  0  0  0  0  0  0  0  0  0
   -8.3136    3.7696   -9.5842 C   0  0  0  0  0  0  0  0  0  0  0  0
   -8.7428    2.8162   -8.5180 C   0  0  0  0  0  0  0  0  0  0  0  0
  1  2  1  0
  2  3  1  0
  3  4  1  0
  4  5  1  0
  5  6  1  0
  6  7  1  0
  7  8  2  0
  8  9  1  0
  9 10  2  0
 10 11  1  0
 11 12  1  0
 12 13  2  0
 12 14  1  0
 14 15  2  0
 15 16  1  0
 16 17  1  0
 17 18  1  0
 18 19  1  0
 16 20  2  0
 20 21  1  0
 21 22  2  0
 22 23  1  0
 23 24  2  0
 24 25  1  0
 25 26  1  0
 26 27  1  0
 27 28  1  0
 28 29  2  0
 29 30  1  0
 30 31  1  0
 10 32  1  0
 32 33  2  0
 33 34  1  0
 34  5  1  0
 33  7  1  0
 22 14  1  0
 31 27  2  0
 19 17  1  0
 25 21  1  0
M  END
>  <name>  (871) 
P125874

>  <alias>  (871) 
None

>  <smina_score_min>  (871) 
-8.705

>  <exports>  (871) 
['/opt/xchem-fragalysis-2/maxwin/BulkDock/OUTPUTS/openbind_xx01zvns2b_c2_elabs_1LOUTNY.sdf', '/opt/xchem-fragalysis-2/maxwin/BulkDock/OUTPUTS/openbind_xx01zvns2b_c2_elabs_1LSYIIV.sdf']

>  <tags>  (871) 
syndirella_placed,openbind_xx01zvns2b_c2_elabs,openbind_xx01zvns2b_c2_elabs_scored_6.2plus,syndirella_product,openbind_xx01zvns2b_c2_elabs_scored,openbind_xx01zvns2b_c2_elabs_scored_top80percent,BulkDock Fragalysis export

>  <subsites>  (871) 
1 - Z4590/B/203/1

>  <smiles>  (871) 
CCCCN1Cc2ccc(NC(=O)c3cc(C4CC4)nc4c3cnn4Cc3ccsc3)cc2C1

>  <HIPPO Pose ID>  (871) 
125874

>  <energy_score>  (871) 
-28.67442

>  <inchikey>  (871) 
KTGDBWCUYIWPSK-UHFFFAOYSA-N

>  <gnina_score_min>  (871) 
6.523

>  <gnina_score>  (871) 
6.553

>  <ref_mols>  (871) 
Z3559a

>  <HIPPO Compound ID>  (871) 
188021

>  <distance_score>  (871) 
0.864796

>  <rmsd(smina/fragmenstein)>  (871) 
0.59

>  <ref_pdb>  (871) 
Z3559a

>  <inspiration_score>  (871) 
None

$$$$
P125877
     RDKit          3D

 34 39  0  0  0  0  0  0  0  0999 V2000
  -10.8469    2.1307   -5.7424 C   0  0  0  0  0  0  0  0  0  0  0  0
   -9.4097    2.6103   -5.8727 C   0  0  0  0  0  0  0  0  0  0  0  0
   -9.0798    3.4984   -4.6628 C   0  0  0  0  0  0  0  0  0  0  0  0
   -9.1699    3.2690   -7.1461 N   0  0  0  0  0  0  0  0  0  0  0  0
   -8.3982    4.4827   -7.2305 C   0  0  0  0  0  0  0  0  0  0  0  0
   -8.1918    4.6428   -8.6835 C   0  0  0  0  0  0  0  0  0  0  0  0
   -7.6416    5.7159   -9.3405 C   0  0  0  0  0  0  0  0  0  0  0  0
   -7.5420    5.6268  -10.7206 C   0  0  0  0  0  0  0  0  0  0  0  0
   -7.9658    4.4767  -11.4196 C   0  0  0  0  0  0  0  0  0  0  0  0
   -7.8066    4.4543  -12.7991 N   0  0  0  0  0  0  0  0  0  0  0  0
   -7.1449    5.4762  -13.7490 C   0  0  0  0  0  0  0  0  0  0  0  0
   -6.6979    6.5330  -13.5314 O   0  0  0  0  0  0  0  0  0  0  0  0
   -7.0879    5.0105  -15.1438 C   0  0  0  0  0  0  0  0  0  0  0  0
   -8.1829    4.4419  -15.7864 C   0  0  0  0  0  0  0  0  0  0  0  0
   -8.1412    4.2453  -17.1687 C   0  0  0  0  0  0  0  0  0  0  0  0
   -9.4087    3.7728  -17.8534 C   0  0  0  0  0  0  0  0  0  0  0  0
   -9.5586    3.8615  -19.3478 C   0  0  0  0  0  0  0  0  0  0  0  0
   -9.4046    2.5228  -18.6912 C   0  0  0  0  0  0  0  0  0  0  0  0
   -7.0517    4.5557  -17.9262 N   0  0  0  0  0  0  0  0  0  0  0  0
   -6.0091    5.0958  -17.2647 C   0  0  0  0  0  0  0  0  0  0  0  0
   -5.9601    5.3358  -15.9030 C   0  0  0  0  0  0  0  0  0  0  0  0
   -4.7068    5.9321  -15.6795 C   0  0  0  0  0  0  0  0  0  0  0  0
   -4.0056    6.0877  -16.8001 N   0  0  0  0  0  0  0  0  0  0  0  0
   -4.8180    5.5804  -17.7683 N   0  0  0  0  0  0  0  0  0  0  0  0
   -4.3793    5.7792  -19.1488 C   0  0  0  0  0  0  0  0  0  0  0  0
   -2.9272    5.2894  -19.3628 C   0  0  0  0  0  0  0  0  0  0  0  0
   -2.5769    4.9805  -20.8196 C   0  0  0  0  0  0  0  0  0  0  0  0
   -3.3529    5.8624  -21.7821 C   0  0  0  0  0  0  0  0  0  0  0  0
   -4.8585    5.6504  -21.6471 C   0  0  0  0  0  0  0  0  0  0  0  0
   -5.3112    5.2559  -20.2371 C   0  0  0  0  0  0  0  0  0  0  0  0
   -8.5256    3.3922  -10.7431 C   0  0  0  0  0  0  0  0  0  0  0  0
   -8.6383    3.5147   -9.3704 C   0  0  0  0  0  0  0  0  0  0  0  0
   -9.2452    2.6135   -8.3796 C   0  0  0  0  0  0  0  0  0  0  0  0
   -9.7337    1.5341   -8.6435 O   0  0  0  0  0  0  0  0  0  0  0  0
  1  2  1  0
  2  3  1  0
  2  4  1  0
  4  5  1  0
  5  6  1  0
  6  7  2  0
  7  8  1  0
  8  9  2  0
  9 10  1  0
 10 11  1  0
 11 12  2  0
 11 13  1  0
 13 14  2  0
 14 15  1  0
 15 16  1  0
 16 17  1  0
 17 18  1  0
 15 19  2  0
 19 20  1  0
 20 21  2  0
 21 22  1  0
 22 23  2  0
 23 24  1  0
 24 25  1  0
 25 26  1  0
 26 27  1  0
 27 28  1  0
 28 29  1  0
 29 30  1  0
  9 31  1  0
 31 32  2  0
 32 33  1  0
 33 34  2  0
 33  4  1  0
 32  6  1  0
 21 13  1  0
 30 25  1  0
 18 16  1  0
 24 20  1  0
M  END
>  <name>  (872) 
P125877

>  <alias>  (872) 
None

>  <smina_score_min>  (872) 
-9.754

>  <exports>  (872) 
['/opt/xchem-fragalysis-2/maxwin/BulkDock/OUTPUTS/openbind_xx01zvns2b_c2_elabs_1LOUTNY.sdf', '/opt/xchem-fragalysis-2/maxwin/BulkDock/OUTPUTS/openbind_xx01zvns2b_c2_elabs_1LSYIIV.sdf']

>  <tags>  (872) 
syndirella_placed,openbind_xx01zvns2b_c2_elabs,openbind_xx01zvns2b_c2_elabs_scored_6.2plus,syndirella_product,openbind_xx01zvns2b_c2_elabs_scored,openbind_xx01zvns2b_c2_elabs_scored_top80percent,BulkDock Fragalysis export

>  <subsites>  (872) 
1 - Z4590/B/203/1

>  <smiles>  (872) 
CC(C)N1Cc2ccc(NC(=O)c3cc(C4CC4)nc4c3cnn4C3CCCCC3)cc2C1=O

>  <HIPPO Pose ID>  (872) 
125877

>  <energy_score>  (872) 
-27.65387

>  <inchikey>  (872) 
XUUYTGURNIFICG-UHFFFAOYSA-N

>  <gnina_score_min>  (872) 
6.423

>  <gnina_score>  (872) 
6.499

>  <ref_mols>  (872) 
Z3559a

>  <HIPPO Compound ID>  (872) 
188024

>  <distance_score>  (872) 
0.596419

>  <rmsd(smina/fragmenstein)>  (872) 
0.515

>  <ref_pdb>  (872) 
Z3559a

>  <inspiration_score>  (872) 
None

$$$$
P125880
     RDKit          3D

 35 40  0  0  0  0  0  0  0  0999 V2000
   -3.4919    9.8818  -17.7119 C   0  0  0  0  0  0  0  0  0  0  0  0
   -4.3819    9.5148  -18.8944 C   0  0  0  0  0  0  0  0  0  0  0  0
   -5.6355   10.3770  -18.9303 C   0  0  0  0  0  0  0  0  0  0  0  0
   -4.7207    8.1117  -18.8364 N   0  0  0  0  0  0  0  0  0  0  0  0
   -3.9472    6.8624  -19.3546 C   0  0  0  0  0  0  0  0  0  0  0  0
   -2.9571    6.7871  -19.9746 O   0  0  0  0  0  0  0  0  0  0  0  0
   -4.7500    5.6177  -18.9915 C   0  0  0  0  0  0  0  0  0  0  0  0
   -5.0338    5.4901  -17.5748 N   0  0  0  0  0  0  0  0  0  0  0  0
   -4.1452    5.8916  -16.6410 N   0  0  0  0  0  0  0  0  0  0  0  0
   -4.8308    5.7901  -15.4954 C   0  0  0  0  0  0  0  0  0  0  0  0
   -4.2086    6.1784  -14.1229 C   0  0  0  0  0  0  0  0  0  0  0  0
   -4.2370    7.6262  -13.7029 C   0  0  0  0  0  0  0  0  0  0  0  0
   -2.9331    6.9823  -14.0684 C   0  0  0  0  0  0  0  0  0  0  0  0
   -6.1394    5.2840  -15.6766 C   0  0  0  0  0  0  0  0  0  0  0  0
   -7.2916    4.9915  -14.9334 C   0  0  0  0  0  0  0  0  0  0  0  0
   -7.4029    5.4114  -13.5224 C   0  0  0  0  0  0  0  0  0  0  0  0
   -7.1634    6.5255  -13.2693 O   0  0  0  0  0  0  0  0  0  0  0  0
   -7.8727    4.2557  -12.6104 N   0  0  0  0  0  0  0  0  0  0  0  0
   -8.0485    4.2071  -11.2277 C   0  0  0  0  0  0  0  0  0  0  0  0
   -7.7740    5.3333  -10.4268 C   0  0  0  0  0  0  0  0  0  0  0  0
   -7.9119    5.2785   -9.0365 C   0  0  0  0  0  0  0  0  0  0  0  0
   -8.3317    4.0847   -8.4875 C   0  0  0  0  0  0  0  0  0  0  0  0
   -8.6206    2.9648   -9.2630 C   0  0  0  0  0  0  0  0  0  0  0  0
   -8.4816    3.0102  -10.6422 C   0  0  0  0  0  0  0  0  0  0  0  0
   -9.0163    1.8325   -8.3753 C   0  0  0  0  0  0  0  0  0  0  0  0
   -9.0412    2.4451   -7.0631 N   0  0  0  0  0  0  0  0  0  0  0  0
   -8.5335    3.7268   -7.0778 C   0  0  0  0  0  0  0  0  0  0  0  0
   -8.2690    4.4319   -6.1222 O   0  0  0  0  0  0  0  0  0  0  0  0
   -8.3977    4.4568  -15.6049 C   0  0  0  0  0  0  0  0  0  0  0  0
   -8.3521    4.2616  -16.9882 C   0  0  0  0  0  0  0  0  0  0  0  0
   -9.5894    3.7895  -17.7203 C   0  0  0  0  0  0  0  0  0  0  0  0
   -9.5117    2.5833  -18.6220 C   0  0  0  0  0  0  0  0  0  0  0  0
   -9.7084    3.9451  -19.2157 C   0  0  0  0  0  0  0  0  0  0  0  0
   -7.2574    4.5650  -17.7239 N   0  0  0  0  0  0  0  0  0  0  0  0
   -6.2156    5.0559  -17.0395 C   0  0  0  0  0  0  0  0  0  0  0  0
  1  2  1  0
  2  3  1  0
  2  4  1  0
  4  5  1  0
  5  6  2  0
  5  7  1  0
  7  8  1  0
  8  9  1  0
  9 10  2  0
 10 11  1  0
 11 12  1  0
 12 13  1  0
 10 14  1  0
 14 15  2  0
 15 16  1  0
 16 17  2  0
 16 18  1  0
 18 19  1  0
 19 20  2  0
 20 21  1  0
 21 22  2  0
 22 23  1  0
 23 24  2  0
 23 25  1  0
 25 26  1  0
 26 27  1  0
 27 28  2  0
 15 29  1  0
 29 30  2  0
 30 31  1  0
 31 32  1  0
 32 33  1  0
 30 34  1  0
 34 35  2  0
 35  8  1  0
 13 11  1  0
 35 14  1  0
 24 19  1  0
 33 31  1  0
 27 22  1  0
M  END
>  <name>  (873) 
P125880

>  <alias>  (873) 
None

>  <smina_score_min>  (873) 
-8.66

>  <exports>  (873) 
['/opt/xchem-fragalysis-2/maxwin/BulkDock/OUTPUTS/openbind_xx01zvns2b_c2_elabs_1LOUTNY.sdf', '/opt/xchem-fragalysis-2/maxwin/BulkDock/OUTPUTS/openbind_xx01zvns2b_c2_elabs_1LSYIIV.sdf']

>  <tags>  (873) 
syndirella_placed,openbind_xx01zvns2b_c2_elabs,openbind_xx01zvns2b_c2_elabs_scored_6.2plus,syndirella_product,openbind_xx01zvns2b_c2_elabs_scored,openbind_xx01zvns2b_c2_elabs_scored_top80percent,BulkDock Fragalysis export

>  <subsites>  (873) 
1 - Z4590/B/203/1

>  <smiles>  (873) 
CC(C)NC(=O)Cn1nc(C2CC2)c2c(C(=O)Nc3ccc4c(c3)CNC4=O)cc(C3CC3)nc21

>  <HIPPO Pose ID>  (873) 
125880

>  <energy_score>  (873) 
-33.335236

>  <inchikey>  (873) 
ZRAPTXFHUJUUOH-UHFFFAOYSA-N

>  <gnina_score_min>  (873) 
6.576

>  <gnina_score>  (873) 
6.756

>  <ref_mols>  (873) 
Z3559a

>  <HIPPO Compound ID>  (873) 
188027

>  <distance_score>  (873) 
0.339581

>  <rmsd(smina/fragmenstein)>  (873) 
1.086

>  <ref_pdb>  (873) 
Z3559a

>  <inspiration_score>  (873) 
None

$$$$
P125881
     RDKit          3D

 35 40  0  0  0  0  0  0  0  0999 V2000
   -1.4599    6.1338  -22.0733 C   0  0  0  0  0  0  0  0  0  0  0  0
   -2.3812    4.9419  -21.8486 C   0  0  0  0  0  0  0  0  0  0  0  0
   -2.9824    4.4442  -23.1545 C   0  0  0  0  0  0  0  0  0  0  0  0
   -3.4226    5.2802  -20.9080 N   0  0  0  0  0  0  0  0  0  0  0  0
   -3.4476    5.1923  -19.3509 C   0  0  0  0  0  0  0  0  0  0  0  0
   -2.6587    4.7613  -18.6052 O   0  0  0  0  0  0  0  0  0  0  0  0
   -4.7836    5.7948  -18.9411 C   0  0  0  0  0  0  0  0  0  0  0  0
   -5.0742    5.6575  -17.5279 N   0  0  0  0  0  0  0  0  0  0  0  0
   -4.3245    6.3084  -16.6073 N   0  0  0  0  0  0  0  0  0  0  0  0
   -4.9639    6.0589  -15.4603 C   0  0  0  0  0  0  0  0  0  0  0  0
   -4.4069    6.5412  -14.0937 C   0  0  0  0  0  0  0  0  0  0  0  0
   -4.0764    5.5255  -13.0290 C   0  0  0  0  0  0  0  0  0  0  0  0
   -2.9705    6.2427  -13.7443 C   0  0  0  0  0  0  0  0  0  0  0  0
   -6.1975    5.3997  -15.6494 C   0  0  0  0  0  0  0  0  0  0  0  0
   -7.3255    5.0242  -14.9126 C   0  0  0  0  0  0  0  0  0  0  0  0
   -7.4859    5.4795  -13.5195 C   0  0  0  0  0  0  0  0  0  0  0  0
   -7.3605    6.6193  -13.3005 O   0  0  0  0  0  0  0  0  0  0  0  0
   -7.8492    4.3130  -12.5755 N   0  0  0  0  0  0  0  0  0  0  0  0
   -8.0348    4.2903  -11.1954 C   0  0  0  0  0  0  0  0  0  0  0  0
   -7.8291    5.4501  -10.4290 C   0  0  0  0  0  0  0  0  0  0  0  0
   -8.0169    5.4395   -9.0449 C   0  0  0  0  0  0  0  0  0  0  0  0
   -8.4176    4.2584   -8.4506 C   0  0  0  0  0  0  0  0  0  0  0  0
   -8.6238    3.1077   -9.2054 C   0  0  0  0  0  0  0  0  0  0  0  0
   -8.4313    3.1009  -10.5794 C   0  0  0  0  0  0  0  0  0  0  0  0
   -9.0879    2.0025   -8.3102 C   0  0  0  0  0  0  0  0  0  0  0  0
   -9.0047    2.5453   -6.9344 N   0  0  0  0  0  0  0  0  0  0  0  0
  -10.1543    2.2109   -6.1166 C   0  0  0  0  0  0  0  0  0  0  0  0
   -8.7330    3.9863   -7.0169 C   0  0  0  0  0  0  0  0  0  0  0  0
   -8.3909    4.4214  -15.5885 C   0  0  0  0  0  0  0  0  0  0  0  0
   -8.3226    4.2290  -16.9716 C   0  0  0  0  0  0  0  0  0  0  0  0
   -9.5505    3.7461  -17.7142 C   0  0  0  0  0  0  0  0  0  0  0  0
   -9.6679    3.9186  -19.2082 C   0  0  0  0  0  0  0  0  0  0  0  0
   -9.4622    2.5519  -18.6286 C   0  0  0  0  0  0  0  0  0  0  0  0
   -7.2283    4.5618  -17.6979 N   0  0  0  0  0  0  0  0  0  0  0  0
   -6.2298    5.1352  -17.0070 C   0  0  0  0  0  0  0  0  0  0  0  0
  1  2  1  0
  2  3  1  0
  2  4  1  0
  4  5  1  0
  5  6  2  0
  5  7  1  0
  7  8  1  0
  8  9  1  0
  9 10  2  0
 10 11  1  0
 11 12  1  0
 12 13  1  0
 10 14  1  0
 14 15  2  0
 15 16  1  0
 16 17  2  0
 16 18  1  0
 18 19  1  0
 19 20  2  0
 20 21  1  0
 21 22  2  0
 22 23  1  0
 23 24  2  0
 23 25  1  0
 25 26  1  0
 26 27  1  0
 26 28  1  0
 15 29  1  0
 29 30  2  0
 30 31  1  0
 31 32  1  0
 32 33  1  0
 30 34  1  0
 34 35  2  0
 35  8  1  0
 13 11  1  0
 35 14  1  0
 24 19  1  0
 33 31  1  0
 28 22  1  0
M  END
>  <name>  (874) 
P125881

>  <alias>  (874) 
None

>  <smina_score_min>  (874) 
-8.907

>  <exports>  (874) 
['/opt/xchem-fragalysis-2/maxwin/BulkDock/OUTPUTS/openbind_xx01zvns2b_c2_elabs_1LOUTNY.sdf', '/opt/xchem-fragalysis-2/maxwin/BulkDock/OUTPUTS/openbind_xx01zvns2b_c2_elabs_1LSYIIV.sdf']

>  <tags>  (874) 
syndirella_placed,openbind_xx01zvns2b_c2_elabs,openbind_xx01zvns2b_c2_elabs_scored_6.2plus,syndirella_product,openbind_xx01zvns2b_c2_elabs_scored,openbind_xx01zvns2b_c2_elabs_scored_top80percent,BulkDock Fragalysis export

>  <subsites>  (874) 
1 - Z4590/B/203/1

>  <smiles>  (874) 
CC(C)NC(=O)Cn1nc(C2CC2)c2c(C(=O)Nc3ccc4c(c3)CN(C)C4)cc(C3CC3)nc21

>  <HIPPO Pose ID>  (874) 
125881

>  <energy_score>  (874) 
-53.194004

>  <inchikey>  (874) 
ZCPOPXMDXXNSNZ-UHFFFAOYSA-N

>  <gnina_score_min>  (874) 
6.517

>  <gnina_score>  (874) 
6.702

>  <ref_mols>  (874) 
Z3559a

>  <HIPPO Compound ID>  (874) 
188028

>  <distance_score>  (874) 
0.421285

>  <rmsd(smina/fragmenstein)>  (874) 
0.816

>  <ref_pdb>  (874) 
Z3559a

>  <inspiration_score>  (874) 
None

$$$$
P125883
     RDKit          3D

 35 40  0  0  0  0  0  0  0  0999 V2000
   -3.0798    9.4502  -21.5128 C   0  0  0  0  0  0  0  0  0  0  0  0
   -2.9419    9.2107  -20.0222 C   0  0  0  0  0  0  0  0  0  0  0  0
   -3.4798    7.9317  -19.6479 N   0  0  0  0  0  0  0  0  0  0  0  0
   -4.9510    7.4938  -19.3714 C   0  0  0  0  0  0  0  0  0  0  0  0
   -5.9361    8.1266  -19.3317 O   0  0  0  0  0  0  0  0  0  0  0  0
   -4.9308    5.9794  -19.1335 C   0  0  0  0  0  0  0  0  0  0  0  0
   -5.0961    5.6972  -17.7257 N   0  0  0  0  0  0  0  0  0  0  0  0
   -4.1450    6.0717  -16.8381 N   0  0  0  0  0  0  0  0  0  0  0  0
   -4.7590    5.9071  -15.6584 C   0  0  0  0  0  0  0  0  0  0  0  0
   -4.0764    6.3255  -14.3268 C   0  0  0  0  0  0  0  0  0  0  0  0
   -3.8562    5.3170  -13.2291 C   0  0  0  0  0  0  0  0  0  0  0  0
   -2.6891    5.8119  -14.0296 C   0  0  0  0  0  0  0  0  0  0  0  0
   -6.0571    5.3587  -15.7804 C   0  0  0  0  0  0  0  0  0  0  0  0
   -7.1607    5.0281  -14.9866 C   0  0  0  0  0  0  0  0  0  0  0  0
   -7.2216    5.4540  -13.5746 C   0  0  0  0  0  0  0  0  0  0  0  0
   -6.9420    6.5583  -13.3208 O   0  0  0  0  0  0  0  0  0  0  0  0
   -7.7348    4.3172  -12.6647 N   0  0  0  0  0  0  0  0  0  0  0  0
   -7.9149    4.2749  -11.2848 C   0  0  0  0  0  0  0  0  0  0  0  0
   -7.6999    5.4242  -10.4994 C   0  0  0  0  0  0  0  0  0  0  0  0
   -7.9270    5.4044   -9.1225 C   0  0  0  0  0  0  0  0  0  0  0  0
   -8.3723    4.2205   -8.5733 C   0  0  0  0  0  0  0  0  0  0  0  0
   -8.5892    3.0735   -9.3339 C   0  0  0  0  0  0  0  0  0  0  0  0
   -8.3526    3.0811  -10.6986 C   0  0  0  0  0  0  0  0  0  0  0  0
   -9.1300    1.9877   -8.4659 C   0  0  0  0  0  0  0  0  0  0  0  0
   -9.2448    2.6474   -7.1754 N   0  0  0  0  0  0  0  0  0  0  0  0
  -10.0076    2.0728   -6.0993 C   0  0  0  0  0  0  0  0  0  0  0  0
   -8.8046    3.9544   -7.1967 C   0  0  0  0  0  0  0  0  0  0  0  0
   -8.8223    4.7848   -6.3062 O   0  0  0  0  0  0  0  0  0  0  0  0
   -8.2837    4.4637  -15.6084 C   0  0  0  0  0  0  0  0  0  0  0  0
   -8.2971    4.2705  -16.9925 C   0  0  0  0  0  0  0  0  0  0  0  0
   -9.5536    3.7697  -17.6708 C   0  0  0  0  0  0  0  0  0  0  0  0
   -9.4788    2.6025  -18.6237 C   0  0  0  0  0  0  0  0  0  0  0  0
   -9.7684    3.9755  -19.1498 C   0  0  0  0  0  0  0  0  0  0  0  0
   -7.2482    4.6067  -17.7760 N   0  0  0  0  0  0  0  0  0  0  0  0
   -6.2006    5.1488  -17.1400 C   0  0  0  0  0  0  0  0  0  0  0  0
  1  2  1  0
  2  3  1  0
  3  4  1  0
  4  5  2  0
  4  6  1  0
  6  7  1  0
  7  8  1  0
  8  9  2  0
  9 10  1  0
 10 11  1  0
 11 12  1  0
  9 13  1  0
 13 14  2  0
 14 15  1  0
 15 16  2  0
 15 17  1  0
 17 18  1  0
 18 19  2  0
 19 20  1  0
 20 21  2  0
 21 22  1  0
 22 23  2  0
 22 24  1  0
 24 25  1  0
 25 26  1  0
 25 27  1  0
 27 28  2  0
 14 29  1  0
 29 30  2  0
 30 31  1  0
 31 32  1  0
 32 33  1  0
 30 34  1  0
 34 35  2  0
 35  7  1  0
 12 10  1  0
 35 13  1  0
 23 18  1  0
 33 31  1  0
 27 21  1  0
M  END
>  <name>  (875) 
P125883

>  <alias>  (875) 
None

>  <smina_score_min>  (875) 
-8.792

>  <exports>  (875) 
['/opt/xchem-fragalysis-2/maxwin/BulkDock/OUTPUTS/openbind_xx01zvns2b_c2_elabs_1LOUTNY.sdf', '/opt/xchem-fragalysis-2/maxwin/BulkDock/OUTPUTS/openbind_xx01zvns2b_c2_elabs_1LSYIIV.sdf']

>  <tags>  (875) 
syndirella_placed,openbind_xx01zvns2b_c2_elabs,openbind_xx01zvns2b_c2_elabs_scored_6.2plus,syndirella_product,openbind_xx01zvns2b_c2_elabs_scored,openbind_xx01zvns2b_c2_elabs_scored_top80percent,BulkDock Fragalysis export

>  <subsites>  (875) 
1 - Z4590/B/203/1

>  <smiles>  (875) 
CCNC(=O)Cn1nc(C2CC2)c2c(C(=O)Nc3ccc4c(c3)CN(C)C4=O)cc(C3CC3)nc21

>  <HIPPO Pose ID>  (875) 
125883

>  <energy_score>  (875) 
-12.630701

>  <inchikey>  (875) 
NZESOVVUBKWLLQ-UHFFFAOYSA-N

>  <gnina_score_min>  (875) 
6.642

>  <gnina_score>  (875) 
6.728

>  <ref_mols>  (875) 
Z3559a

>  <HIPPO Compound ID>  (875) 
188030

>  <distance_score>  (875) 
0.394192

>  <rmsd(smina/fragmenstein)>  (875) 
1.185

>  <ref_pdb>  (875) 
Z3559a

>  <inspiration_score>  (875) 
None

$$$$
P125884
     RDKit          3D

 35 40  0  0  0  0  0  0  0  0999 V2000
   -3.5854    6.2116  -14.5416 C   0  0  0  0  0  0  0  0  0  0  0  0
   -4.3589    5.8133  -15.7461 C   0  0  0  0  0  0  0  0  0  0  0  0
   -3.7830    5.9087  -16.9453 N   0  0  0  0  0  0  0  0  0  0  0  0
   -4.7115    5.4566  -17.8433 N   0  0  0  0  0  0  0  0  0  0  0  0
   -4.3762    5.4820  -19.2312 C   0  0  0  0  0  0  0  0  0  0  0  0
   -3.1825    6.1257  -19.6215 C   0  0  0  0  0  0  0  0  0  0  0  0
   -2.8056    6.2018  -20.9667 C   0  0  0  0  0  0  0  0  0  0  0  0
   -3.6111    5.6362  -21.9479 C   0  0  0  0  0  0  0  0  0  0  0  0
   -4.7791    4.9791  -21.5749 C   0  0  0  0  0  0  0  0  0  0  0  0
   -5.1535    4.8960  -20.2296 C   0  0  0  0  0  0  0  0  0  0  0  0
   -6.2219    4.1391  -19.9672 F   0  0  0  0  0  0  0  0  0  0  0  0
   -5.8838    5.0846  -17.1872 C   0  0  0  0  0  0  0  0  0  0  0  0
   -7.0149    4.6045  -17.7312 N   0  0  0  0  0  0  0  0  0  0  0  0
   -8.0647    4.3902  -16.9100 C   0  0  0  0  0  0  0  0  0  0  0  0
   -9.3499    3.8672  -17.5607 C   0  0  0  0  0  0  0  0  0  0  0  0
   -9.2789    2.7536  -18.5830 C   0  0  0  0  0  0  0  0  0  0  0  0
   -9.6487    4.1381  -19.0159 C   0  0  0  0  0  0  0  0  0  0  0  0
   -7.9768    4.6896  -15.5417 C   0  0  0  0  0  0  0  0  0  0  0  0
   -9.3921    4.7256  -14.5671 Cl  0  0  0  0  0  0  0  0  0  0  0  0
   -6.7639    5.1076  -14.9718 C   0  0  0  0  0  0  0  0  0  0  0  0
   -6.6708    5.4655  -13.5309 C   0  0  0  0  0  0  0  0  0  0  0  0
   -6.2900    6.5339  -13.2500 O   0  0  0  0  0  0  0  0  0  0  0  0
   -7.2174    4.3252  -12.6333 N   0  0  0  0  0  0  0  0  0  0  0  0
   -7.4874    4.2999  -11.2662 C   0  0  0  0  0  0  0  0  0  0  0  0
   -7.2949    5.4374  -10.4630 C   0  0  0  0  0  0  0  0  0  0  0  0
   -7.6568    5.4280   -9.1129 C   0  0  0  0  0  0  0  0  0  0  0  0
   -8.2072    4.2672   -8.6074 C   0  0  0  0  0  0  0  0  0  0  0  0
   -8.4133    3.1327   -9.3878 C   0  0  0  0  0  0  0  0  0  0  0  0
   -8.0532    3.1331  -10.7258 C   0  0  0  0  0  0  0  0  0  0  0  0
   -9.0623    2.0661   -8.5684 C   0  0  0  0  0  0  0  0  0  0  0  0
   -9.2049    2.7128   -7.2739 N   0  0  0  0  0  0  0  0  0  0  0  0
   -9.9477    2.1065   -6.2005 C   0  0  0  0  0  0  0  0  0  0  0  0
   -8.7212    4.0038   -7.2581 C   0  0  0  0  0  0  0  0  0  0  0  0
   -8.7373    4.8194   -6.3544 O   0  0  0  0  0  0  0  0  0  0  0  0
   -5.6864    5.3419  -15.8352 C   0  0  0  0  0  0  0  0  0  0  0  0
  1  2  1  0
  2  3  2  0
  3  4  1  0
  4  5  1  0
  5  6  2  0
  6  7  1  0
  7  8  2  0
  8  9  1  0
  9 10  2  0
 10 11  1  0
  4 12  1  0
 12 13  2  0
 13 14  1  0
 14 15  1  0
 15 16  1  0
 16 17  1  0
 14 18  2  0
 18 19  1  0
 18 20  1  0
 20 21  1  0
 21 22  2  0
 21 23  1  0
 23 24  1  0
 24 25  2  0
 25 26  1  0
 26 27  2  0
 27 28  1  0
 28 29  2  0
 28 30  1  0
 30 31  1  0
 31 32  1  0
 31 33  1  0
 33 34  2  0
 20 35  2  0
 35  2  1  0
 10  5  1  0
 35 12  1  0
 17 15  1  0
 29 24  1  0
 33 27  1  0
M  END
>  <name>  (876) 
P125884

>  <alias>  (876) 
None

>  <smina_score_min>  (876) 
-9.453

>  <exports>  (876) 
['/opt/xchem-fragalysis-2/maxwin/BulkDock/OUTPUTS/openbind_xx01zvns2b_c2_elabs_1LOUTNY.sdf', '/opt/xchem-fragalysis-2/maxwin/BulkDock/OUTPUTS/openbind_xx01zvns2b_c2_elabs_1LSYIIV.sdf']

>  <tags>  (876) 
syndirella_placed,openbind_xx01zvns2b_c2_elabs,openbind_xx01zvns2b_c2_elabs_scored_6.2plus,syndirella_product,openbind_xx01zvns2b_c2_elabs_scored,openbind_xx01zvns2b_c2_elabs_scored_top80percent,BulkDock Fragalysis export

>  <subsites>  (876) 
1 - Z4590/B/203/1

>  <smiles>  (876) 
Cc1nn(-c2ccccc2F)c2nc(C3CC3)c(Cl)c(C(=O)Nc3ccc4c(c3)CN(C)C4=O)c12

>  <HIPPO Pose ID>  (876) 
125884

>  <energy_score>  (876) 
-43.415834

>  <inchikey>  (876) 
ZXZXVHMATBFKNA-UHFFFAOYSA-N

>  <gnina_score_min>  (876) 
6.825

>  <gnina_score>  (876) 
6.895

>  <ref_mols>  (876) 
Z3559a

>  <HIPPO Compound ID>  (876) 
188031

>  <distance_score>  (876) 
0.605828

>  <rmsd(smina/fragmenstein)>  (876) 
0.334

>  <ref_pdb>  (876) 
Z3559a

>  <inspiration_score>  (876) 
None

$$$$
P125888
     RDKit          3D

 35 40  0  0  0  0  0  0  0  0999 V2000
   -3.5990    6.0884  -14.2918 C   0  0  0  0  0  0  0  0  0  0  0  0
   -4.3624    5.7425  -15.5188 C   0  0  0  0  0  0  0  0  0  0  0  0
   -3.7398    5.8093  -16.6950 N   0  0  0  0  0  0  0  0  0  0  0  0
   -4.6442    5.4062  -17.6238 N   0  0  0  0  0  0  0  0  0  0  0  0
   -4.2720    5.3391  -18.9992 C   0  0  0  0  0  0  0  0  0  0  0  0
   -5.2174    5.1047  -20.0067 C   0  0  0  0  0  0  0  0  0  0  0  0
   -4.8182    4.9886  -21.3450 C   0  0  0  0  0  0  0  0  0  0  0  0
   -3.4770    5.1031  -21.6975 C   0  0  0  0  0  0  0  0  0  0  0  0
   -2.5305    5.3458  -20.7086 C   0  0  0  0  0  0  0  0  0  0  0  0
   -2.9255    5.4701  -19.3749 C   0  0  0  0  0  0  0  0  0  0  0  0
   -1.9477    5.6734  -18.4804 F   0  0  0  0  0  0  0  0  0  0  0  0
   -5.8628    5.0915  -17.0181 C   0  0  0  0  0  0  0  0  0  0  0  0
   -6.9733    4.6145  -17.6155 N   0  0  0  0  0  0  0  0  0  0  0  0
   -8.0522    4.4062  -16.8264 C   0  0  0  0  0  0  0  0  0  0  0  0
   -9.3206    3.8843  -17.5151 C   0  0  0  0  0  0  0  0  0  0  0  0
   -9.2220    2.7911  -18.5577 C   0  0  0  0  0  0  0  0  0  0  0  0
   -9.5991    4.1794  -18.9698 C   0  0  0  0  0  0  0  0  0  0  0  0
   -8.0069    4.6995  -15.4506 C   0  0  0  0  0  0  0  0  0  0  0  0
   -9.4505    4.7584  -14.5282 Cl  0  0  0  0  0  0  0  0  0  0  0  0
   -6.8146    5.0930  -14.8251 C   0  0  0  0  0  0  0  0  0  0  0  0
   -6.7434    5.3959  -13.3617 C   0  0  0  0  0  0  0  0  0  0  0  0
   -6.2212    6.3921  -13.0411 O   0  0  0  0  0  0  0  0  0  0  0  0
   -7.4154    4.2885  -12.5011 N   0  0  0  0  0  0  0  0  0  0  0  0
   -7.6570    4.2296  -11.1269 C   0  0  0  0  0  0  0  0  0  0  0  0
   -7.2189    5.2603  -10.2720 C   0  0  0  0  0  0  0  0  0  0  0  0
   -7.4244    5.1894   -8.8885 C   0  0  0  0  0  0  0  0  0  0  0  0
   -8.0857    4.0815   -8.4005 C   0  0  0  0  0  0  0  0  0  0  0  0
   -8.5664    3.0913   -9.2374 C   0  0  0  0  0  0  0  0  0  0  0  0
   -8.3632    3.1323  -10.6078 C   0  0  0  0  0  0  0  0  0  0  0  0
   -9.2563    2.1163   -8.3884 C   0  0  0  0  0  0  0  0  0  0  0  0
   -9.9037    1.1700   -8.7833 O   0  0  0  0  0  0  0  0  0  0  0  0
   -9.0843    2.5270   -7.1001 N   0  0  0  0  0  0  0  0  0  0  0  0
   -8.3872    3.6910   -7.0221 C   0  0  0  0  0  0  0  0  0  0  0  0
   -8.0406    4.3075   -6.0311 O   0  0  0  0  0  0  0  0  0  0  0  0
   -5.7061    5.3234  -15.6548 C   0  0  0  0  0  0  0  0  0  0  0  0
  1  2  1  0
  2  3  2  0
  3  4  1  0
  4  5  1  0
  5  6  2  0
  6  7  1  0
  7  8  2  0
  8  9  1  0
  9 10  2  0
 10 11  1  0
  4 12  1  0
 12 13  2  0
 13 14  1  0
 14 15  1  0
 15 16  1  0
 16 17  1  0
 14 18  2  0
 18 19  1  0
 18 20  1  0
 20 21  1  0
 21 22  2  0
 21 23  1  0
 23 24  1  0
 24 25  2  0
 25 26  1  0
 26 27  2  0
 27 28  1  0
 28 29  2  0
 28 30  1  0
 30 31  2  0
 30 32  1  0
 32 33  1  0
 33 34  2  0
 20 35  2  0
 35  2  1  0
 10  5  1  0
 35 12  1  0
 17 15  1  0
 29 24  1  0
 33 27  1  0
M  END
>  <name>  (877) 
P125888

>  <alias>  (877) 
None

>  <smina_score_min>  (877) 
-9.438

>  <exports>  (877) 
['/opt/xchem-fragalysis-2/maxwin/BulkDock/OUTPUTS/openbind_xx01zvns2b_c2_elabs_1LOUTNY.sdf', '/opt/xchem-fragalysis-2/maxwin/BulkDock/OUTPUTS/openbind_xx01zvns2b_c2_elabs_1LSYIIV.sdf']

>  <tags>  (877) 
syndirella_placed,openbind_xx01zvns2b_c2_elabs,openbind_xx01zvns2b_c2_elabs_scored_6.2plus,syndirella_product,openbind_xx01zvns2b_c2_elabs_scored,openbind_xx01zvns2b_c2_elabs_scored_top80percent,BulkDock Fragalysis export

>  <subsites>  (877) 
1 - Z4590/B/203/1

>  <smiles>  (877) 
Cc1nn(-c2ccccc2F)c2nc(C3CC3)c(Cl)c(C(=O)Nc3ccc4c(c3)C(=O)NC4=O)c12

>  <HIPPO Pose ID>  (877) 
125888

>  <energy_score>  (877) 
-71.160374

>  <inchikey>  (877) 
IEQOBILLTXZFQI-UHFFFAOYSA-N

>  <gnina_score_min>  (877) 
6.839

>  <gnina_score>  (877) 
6.89

>  <ref_mols>  (877) 
Z3559a

>  <HIPPO Compound ID>  (877) 
188035

>  <distance_score>  (877) 
0.588589

>  <rmsd(smina/fragmenstein)>  (877) 
0.514

>  <ref_pdb>  (877) 
Z3559a

>  <inspiration_score>  (877) 
None

$$$$
P125892
     RDKit          3D

 35 40  0  0  0  0  0  0  0  0999 V2000
   -3.9056    6.3423  -14.6740 C   0  0  0  0  0  0  0  0  0  0  0  0
   -4.6608    5.9293  -15.8835 C   0  0  0  0  0  0  0  0  0  0  0  0
   -4.0808    6.0358  -17.0908 N   0  0  0  0  0  0  0  0  0  0  0  0
   -5.0531    5.6442  -17.9442 N   0  0  0  0  0  0  0  0  0  0  0  0
   -4.8474    5.7182  -19.3740 C   0  0  0  0  0  0  0  0  0  0  0  0
   -5.2892    7.0588  -19.9656 C   0  0  0  0  0  0  0  0  0  0  0  0
   -5.8660    7.8925  -19.3795 O   0  0  0  0  0  0  0  0  0  0  0  0
   -4.8150    7.0120  -21.4554 N   0  0  0  0  0  0  0  0  0  0  0  0
   -4.8729    8.0188  -22.4893 C   0  0  0  0  0  0  0  0  0  0  0  0
   -5.2083    7.4157  -23.8476 C   0  0  0  0  0  0  0  0  0  0  0  0
   -3.8782    6.8888  -24.3819 C   0  0  0  0  0  0  0  0  0  0  0  0
   -2.7841    7.6613  -23.6442 C   0  0  0  0  0  0  0  0  0  0  0  0
   -3.5047    8.6467  -22.7276 C   0  0  0  0  0  0  0  0  0  0  0  0
   -6.1599    5.1487  -17.3198 C   0  0  0  0  0  0  0  0  0  0  0  0
   -7.2254    4.5918  -17.9150 N   0  0  0  0  0  0  0  0  0  0  0  0
   -8.2541    4.2858  -17.0898 C   0  0  0  0  0  0  0  0  0  0  0  0
   -9.5325    3.7662  -17.7086 C   0  0  0  0  0  0  0  0  0  0  0  0
   -9.8170    3.9638  -19.1757 C   0  0  0  0  0  0  0  0  0  0  0  0
   -9.4832    2.5964  -18.6592 C   0  0  0  0  0  0  0  0  0  0  0  0
   -8.1995    4.5118  -15.7122 C   0  0  0  0  0  0  0  0  0  0  0  0
   -7.0536    5.0774  -15.1355 C   0  0  0  0  0  0  0  0  0  0  0  0
   -7.0383    5.4706  -13.7115 C   0  0  0  0  0  0  0  0  0  0  0  0
   -6.6478    6.5327  -13.4298 O   0  0  0  0  0  0  0  0  0  0  0  0
   -7.5789    4.3352  -12.8193 N   0  0  0  0  0  0  0  0  0  0  0  0
   -7.8320    4.3034  -11.4540 C   0  0  0  0  0  0  0  0  0  0  0  0
   -7.5825    5.4216  -10.6393 C   0  0  0  0  0  0  0  0  0  0  0  0
   -7.8400    5.3811   -9.2666 C   0  0  0  0  0  0  0  0  0  0  0  0
   -8.3606    4.2158   -8.7429 C   0  0  0  0  0  0  0  0  0  0  0  0
   -8.6140    3.1096   -9.5541 C   0  0  0  0  0  0  0  0  0  0  0  0
   -8.3495    3.1290  -10.9089 C   0  0  0  0  0  0  0  0  0  0  0  0
   -9.1749    2.0075   -8.7186 C   0  0  0  0  0  0  0  0  0  0  0  0
   -9.6047    2.6931   -7.4795 N   0  0  0  0  0  0  0  0  0  0  0  0
   -9.5340    1.8118   -6.3389 C   0  0  0  0  0  0  0  0  0  0  0  0
   -8.7416    3.8816   -7.3374 C   0  0  0  0  0  0  0  0  0  0  0  0
   -5.9761    5.3928  -15.9713 C   0  0  0  0  0  0  0  0  0  0  0  0
  1  2  1  0
  2  3  2  0
  3  4  1  0
  4  5  1  0
  5  6  1  0
  6  7  2  0
  6  8  1  0
  8  9  1  0
  9 10  1  0
 10 11  1  0
 11 12  1  0
 12 13  1  0
  4 14  1  0
 14 15  2  0
 15 16  1  0
 16 17  1  0
 17 18  1  0
 18 19  1  0
 16 20  2  0
 20 21  1  0
 21 22  1  0
 22 23  2  0
 22 24  1  0
 24 25  1  0
 25 26  2  0
 26 27  1  0
 27 28  2  0
 28 29  1  0
 29 30  2  0
 29 31  1  0
 31 32  1  0
 32 33  1  0
 32 34  1  0
 21 35  2  0
 35  2  1  0
 13  9  1  0
 35 14  1  0
 19 17  1  0
 30 25  1  0
 34 28  1  0
M  END
>  <name>  (878) 
P125892

>  <alias>  (878) 
None

>  <smina_score_min>  (878) 
-9.341

>  <exports>  (878) 
['/opt/xchem-fragalysis-2/maxwin/BulkDock/OUTPUTS/openbind_xx01zvns2b_c2_elabs_1LOUTNY.sdf', '/opt/xchem-fragalysis-2/maxwin/BulkDock/OUTPUTS/openbind_xx01zvns2b_c2_elabs_1LSYIIV.sdf']

>  <tags>  (878) 
syndirella_placed,openbind_xx01zvns2b_c2_elabs,openbind_xx01zvns2b_c2_elabs_scored_6.2plus,syndirella_product,openbind_xx01zvns2b_c2_elabs_scored,openbind_xx01zvns2b_c2_elabs_scored_top80percent,BulkDock Fragalysis export

>  <subsites>  (878) 
1 - Z4590/B/203/1

>  <smiles>  (878) 
Cc1nn(CC(=O)NC2CCCC2)c2nc(C3CC3)cc(C(=O)Nc3ccc4c(c3)CN(C)C4)c12

>  <HIPPO Pose ID>  (878) 
125892

>  <energy_score>  (878) 
-25.554546

>  <inchikey>  (878) 
HMPHZPAZLGCEOG-UHFFFAOYSA-N

>  <gnina_score_min>  (878) 
6.732

>  <gnina_score>  (878) 
6.723

>  <ref_mols>  (878) 
Z3559a

>  <HIPPO Compound ID>  (878) 
188039

>  <distance_score>  (878) 
0.469904

>  <rmsd(smina/fragmenstein)>  (878) 
0.482

>  <ref_pdb>  (878) 
Z3559a

>  <inspiration_score>  (878) 
None

$$$$
P125893
     RDKit          3D

 35 40  0  0  0  0  0  0  0  0999 V2000
   -4.0253    6.2832  -14.4428 C   0  0  0  0  0  0  0  0  0  0  0  0
   -4.7530    5.8797  -15.6727 C   0  0  0  0  0  0  0  0  0  0  0  0
   -4.1388    5.9819  -16.8656 N   0  0  0  0  0  0  0  0  0  0  0  0
   -5.0947    5.6029  -17.7440 N   0  0  0  0  0  0  0  0  0  0  0  0
   -4.8404    5.6271  -19.1687 C   0  0  0  0  0  0  0  0  0  0  0  0
   -5.2720    6.9340  -19.8356 C   0  0  0  0  0  0  0  0  0  0  0  0
   -5.8175    7.8167  -19.2929 O   0  0  0  0  0  0  0  0  0  0  0  0
   -4.8181    6.7870  -21.3259 N   0  0  0  0  0  0  0  0  0  0  0  0
   -4.8608    7.7337  -22.4168 C   0  0  0  0  0  0  0  0  0  0  0  0
   -5.0913    7.0437  -23.7551 C   0  0  0  0  0  0  0  0  0  0  0  0
   -3.7101    6.5614  -24.1934 C   0  0  0  0  0  0  0  0  0  0  0  0
   -2.6959    7.4149  -23.4310 C   0  0  0  0  0  0  0  0  0  0  0  0
   -3.5113    8.4141  -22.6143 C   0  0  0  0  0  0  0  0  0  0  0  0
   -6.2215    5.1213  -17.1457 C   0  0  0  0  0  0  0  0  0  0  0  0
   -7.2735    4.5803  -17.7736 N   0  0  0  0  0  0  0  0  0  0  0  0
   -8.3246    4.2707  -16.9813 C   0  0  0  0  0  0  0  0  0  0  0  0
   -9.5845    3.7740  -17.6555 C   0  0  0  0  0  0  0  0  0  0  0  0
   -9.5102    2.6157  -18.6202 C   0  0  0  0  0  0  0  0  0  0  0  0
   -9.8084    3.9924  -19.1318 C   0  0  0  0  0  0  0  0  0  0  0  0
   -8.3032    4.4722  -15.5965 C   0  0  0  0  0  0  0  0  0  0  0  0
   -7.1708    5.0234  -14.9790 C   0  0  0  0  0  0  0  0  0  0  0  0
   -7.1875    5.4004  -13.5453 C   0  0  0  0  0  0  0  0  0  0  0  0
   -6.7862    6.4591  -13.2594 O   0  0  0  0  0  0  0  0  0  0  0  0
   -7.7265    4.2575  -12.6522 N   0  0  0  0  0  0  0  0  0  0  0  0
   -7.9642    4.2166  -11.2775 C   0  0  0  0  0  0  0  0  0  0  0  0
   -7.7204    5.3462  -10.4715 C   0  0  0  0  0  0  0  0  0  0  0  0
   -7.9022    5.2954   -9.0859 C   0  0  0  0  0  0  0  0  0  0  0  0
   -8.3319    4.1011   -8.5457 C   0  0  0  0  0  0  0  0  0  0  0  0
   -8.5949    2.9782   -9.3261 C   0  0  0  0  0  0  0  0  0  0  0  0
   -8.4179    3.0218  -10.7018 C   0  0  0  0  0  0  0  0  0  0  0  0
   -9.0059    1.8452   -8.4455 C   0  0  0  0  0  0  0  0  0  0  0  0
   -9.0616    2.4590   -7.1349 N   0  0  0  0  0  0  0  0  0  0  0  0
   -8.5662    3.7453   -7.1405 C   0  0  0  0  0  0  0  0  0  0  0  0
   -8.3345    4.4561   -6.1808 O   0  0  0  0  0  0  0  0  0  0  0  0
   -6.0709    5.3489  -15.7901 C   0  0  0  0  0  0  0  0  0  0  0  0
  1  2  1  0
  2  3  2  0
  3  4  1  0
  4  5  1  0
  5  6  1  0
  6  7  2  0
  6  8  1  0
  8  9  1  0
  9 10  1  0
 10 11  1  0
 11 12  1  0
 12 13  1  0
  4 14  1  0
 14 15  2  0
 15 16  1  0
 16 17  1  0
 17 18  1  0
 18 19  1  0
 16 20  2  0
 20 21  1  0
 21 22  1  0
 22 23  2  0
 22 24  1  0
 24 25  1  0
 25 26  2  0
 26 27  1  0
 27 28  2  0
 28 29  1  0
 29 30  2  0
 29 31  1  0
 31 32  1  0
 32 33  1  0
 33 34  2  0
 21 35  2  0
 35  2  1  0
 13  9  1  0
 35 14  1  0
 19 17  1  0
 30 25  1  0
 33 28  1  0
M  END
>  <name>  (879) 
P125893

>  <alias>  (879) 
None

>  <smina_score_min>  (879) 
-9.568

>  <exports>  (879) 
['/opt/xchem-fragalysis-2/maxwin/BulkDock/OUTPUTS/openbind_xx01zvns2b_c2_elabs_1LOUTNY.sdf', '/opt/xchem-fragalysis-2/maxwin/BulkDock/OUTPUTS/openbind_xx01zvns2b_c2_elabs_1LSYIIV.sdf']

>  <tags>  (879) 
syndirella_placed,openbind_xx01zvns2b_c2_elabs,openbind_xx01zvns2b_c2_elabs_scored_6.2plus,syndirella_product,openbind_xx01zvns2b_c2_elabs_scored,openbind_xx01zvns2b_c2_elabs_scored_top80percent,BulkDock Fragalysis export

>  <subsites>  (879) 
1 - Z4590/B/203/1

>  <smiles>  (879) 
Cc1nn(CC(=O)NC2CCCC2)c2nc(C3CC3)cc(C(=O)Nc3ccc4c(c3)CNC4=O)c12

>  <HIPPO Pose ID>  (879) 
125893

>  <energy_score>  (879) 
-31.513853

>  <inchikey>  (879) 
NHIHXFMHDZFSJV-UHFFFAOYSA-N

>  <gnina_score_min>  (879) 
6.731

>  <gnina_score>  (879) 
6.742

>  <ref_mols>  (879) 
Z3559a

>  <HIPPO Compound ID>  (879) 
188040

>  <distance_score>  (879) 
0.325651

>  <rmsd(smina/fragmenstein)>  (879) 
0.741

>  <ref_pdb>  (879) 
Z3559a

>  <inspiration_score>  (879) 
None

$$$$
P125894
     RDKit          3D

 35 40  0  0  0  0  0  0  0  0999 V2000
   -4.0407    6.2648  -14.3120 C   0  0  0  0  0  0  0  0  0  0  0  0
   -4.7584    5.8874  -15.5558 C   0  0  0  0  0  0  0  0  0  0  0  0
   -4.1370    6.0276  -16.7411 N   0  0  0  0  0  0  0  0  0  0  0  0
   -5.0781    5.6490  -17.6354 N   0  0  0  0  0  0  0  0  0  0  0  0
   -4.8002    5.6736  -19.0559 C   0  0  0  0  0  0  0  0  0  0  0  0
   -5.2218    6.9775  -19.7449 C   0  0  0  0  0  0  0  0  0  0  0  0
   -5.8266    7.8352  -19.1661 O   0  0  0  0  0  0  0  0  0  0  0  0
   -4.7520    6.9128  -21.1161 N   0  0  0  0  0  0  0  0  0  0  0  0
   -4.7835    7.8900  -22.1697 C   0  0  0  0  0  0  0  0  0  0  0  0
   -5.0157    7.2775  -23.5435 C   0  0  0  0  0  0  0  0  0  0  0  0
   -4.5826    8.3824  -24.4961 C   0  0  0  0  0  0  0  0  0  0  0  0
   -3.4718    9.1417  -23.7693 C   0  0  0  0  0  0  0  0  0  0  0  0
   -3.4479    8.6055  -22.3391 C   0  0  0  0  0  0  0  0  0  0  0  0
   -6.2077    5.1489  -17.0573 C   0  0  0  0  0  0  0  0  0  0  0  0
   -7.2492    4.6140  -17.7085 N   0  0  0  0  0  0  0  0  0  0  0  0
   -8.3059    4.2803  -16.9344 C   0  0  0  0  0  0  0  0  0  0  0  0
   -9.5569    3.7871  -17.6304 C   0  0  0  0  0  0  0  0  0  0  0  0
   -9.4705    2.6349  -18.6018 C   0  0  0  0  0  0  0  0  0  0  0  0
   -9.7618    4.0144  -19.1085 C   0  0  0  0  0  0  0  0  0  0  0  0
   -8.2997    4.4539  -15.5451 C   0  0  0  0  0  0  0  0  0  0  0  0
   -7.1760    4.9931  -14.8981 C   0  0  0  0  0  0  0  0  0  0  0  0
   -7.2073    5.3448  -13.4547 C   0  0  0  0  0  0  0  0  0  0  0  0
   -6.8101    6.4459  -13.1972 O   0  0  0  0  0  0  0  0  0  0  0  0
   -7.7620    4.3230  -12.6065 N   0  0  0  0  0  0  0  0  0  0  0  0
   -7.9203    4.2697  -11.2180 C   0  0  0  0  0  0  0  0  0  0  0  0
   -7.4535    5.3173  -10.3958 C   0  0  0  0  0  0  0  0  0  0  0  0
   -7.6062    5.2821   -9.0029 C   0  0  0  0  0  0  0  0  0  0  0  0
   -8.2427    4.1911   -8.4476 C   0  0  0  0  0  0  0  0  0  0  0  0
   -8.7123    3.1649   -9.2671 C   0  0  0  0  0  0  0  0  0  0  0  0
   -8.5568    3.1664  -10.6444 C   0  0  0  0  0  0  0  0  0  0  0  0
   -9.3815    2.1852   -8.4022 C   0  0  0  0  0  0  0  0  0  0  0  0
   -9.9342    1.1675   -8.7605 O   0  0  0  0  0  0  0  0  0  0  0  0
   -9.2956    2.6606   -7.1094 N   0  0  0  0  0  0  0  0  0  0  0  0
   -8.5500    3.8862   -7.0210 C   0  0  0  0  0  0  0  0  0  0  0  0
   -6.0714    5.3468  -15.6949 C   0  0  0  0  0  0  0  0  0  0  0  0
  1  2  1  0
  2  3  2  0
  3  4  1  0
  4  5  1  0
  5  6  1  0
  6  7  2  0
  6  8  1  0
  8  9  1  0
  9 10  1  0
 10 11  1  0
 11 12  1  0
 12 13  1  0
  4 14  1  0
 14 15  2  0
 15 16  1  0
 16 17  1  0
 17 18  1  0
 18 19  1  0
 16 20  2  0
 20 21  1  0
 21 22  1  0
 22 23  2  0
 22 24  1  0
 24 25  1  0
 25 26  2  0
 26 27  1  0
 27 28  2  0
 28 29  1  0
 29 30  2  0
 29 31  1  0
 31 32  2  0
 31 33  1  0
 33 34  1  0
 21 35  2  0
 35  2  1  0
 13  9  1  0
 35 14  1  0
 19 17  1  0
 30 25  1  0
 34 28  1  0
M  END
>  <name>  (880) 
P125894

>  <alias>  (880) 
None

>  <smina_score_min>  (880) 
-9.429

>  <exports>  (880) 
['/opt/xchem-fragalysis-2/maxwin/BulkDock/OUTPUTS/openbind_xx01zvns2b_c2_elabs_1LOUTNY.sdf', '/opt/xchem-fragalysis-2/maxwin/BulkDock/OUTPUTS/openbind_xx01zvns2b_c2_elabs_1LSYIIV.sdf']

>  <tags>  (880) 
syndirella_placed,openbind_xx01zvns2b_c2_elabs,openbind_xx01zvns2b_c2_elabs_scored_6.2plus,syndirella_product,openbind_xx01zvns2b_c2_elabs_scored,openbind_xx01zvns2b_c2_elabs_scored_top80percent,BulkDock Fragalysis export

>  <subsites>  (880) 
1 - Z4590/B/203/1

>  <smiles>  (880) 
Cc1nn(CC(=O)NC2CCCC2)c2nc(C3CC3)cc(C(=O)Nc3ccc4c(c3)C(=O)NC4)c12

>  <HIPPO Pose ID>  (880) 
125894

>  <energy_score>  (880) 
-31.268861

>  <inchikey>  (880) 
OTLIOZMDHHDTSV-UHFFFAOYSA-N

>  <gnina_score_min>  (880) 
6.711

>  <gnina_score>  (880) 
6.68

>  <ref_mols>  (880) 
Z3559a

>  <HIPPO Compound ID>  (880) 
188041

>  <distance_score>  (880) 
0.396709

>  <rmsd(smina/fragmenstein)>  (880) 
0.95

>  <ref_pdb>  (880) 
Z3559a

>  <inspiration_score>  (880) 
None

$$$$
P125895
     RDKit          3D

 35 40  0  0  0  0  0  0  0  0999 V2000
   -0.4509    6.2386  -15.5308 C   0  0  0  0  0  0  0  0  0  0  0  0
   -0.6219    6.4481  -17.0229 C   0  0  0  0  0  0  0  0  0  0  0  0
   -2.0049    6.3503  -17.4069 N   0  0  0  0  0  0  0  0  0  0  0  0
   -2.6681    5.4664  -18.3248 C   0  0  0  0  0  0  0  0  0  0  0  0
   -2.2267    4.6342  -19.0665 O   0  0  0  0  0  0  0  0  0  0  0  0
   -4.1733    5.7617  -18.3806 C   0  0  0  0  0  0  0  0  0  0  0  0
   -4.8482    5.6803  -17.0975 N   0  0  0  0  0  0  0  0  0  0  0  0
   -4.3355    6.3242  -16.0191 N   0  0  0  0  0  0  0  0  0  0  0  0
   -5.2373    6.0894  -15.0605 C   0  0  0  0  0  0  0  0  0  0  0  0
   -5.0445    6.6581  -13.6266 C   0  0  0  0  0  0  0  0  0  0  0  0
   -5.9575    7.7501  -13.1306 C   0  0  0  0  0  0  0  0  0  0  0  0
   -4.5306    8.0679  -13.4607 C   0  0  0  0  0  0  0  0  0  0  0  0
   -6.3581    5.3599  -15.5212 C   0  0  0  0  0  0  0  0  0  0  0  0
   -7.5937    4.8850  -15.0573 C   0  0  0  0  0  0  0  0  0  0  0  0
   -8.0004    5.0768  -13.6612 C   0  0  0  0  0  0  0  0  0  0  0  0
   -8.9301    5.8034  -13.4544 O   0  0  0  0  0  0  0  0  0  0  0  0
   -7.1188    4.4034  -12.7581 N   0  0  0  0  0  0  0  0  0  0  0  0
   -7.0143    4.4592  -11.3735 C   0  0  0  0  0  0  0  0  0  0  0  0
   -6.0117    3.6795  -10.7749 C   0  0  0  0  0  0  0  0  0  0  0  0
   -5.7297    3.8050   -9.4154 C   0  0  0  0  0  0  0  0  0  0  0  0
   -6.4707    4.7026   -8.6739 C   0  0  0  0  0  0  0  0  0  0  0  0
   -7.4768    5.4587   -9.2612 C   0  0  0  0  0  0  0  0  0  0  0  0
   -7.7727    5.3451  -10.6085 C   0  0  0  0  0  0  0  0  0  0  0  0
   -8.0360    6.3878   -8.2374 C   0  0  0  0  0  0  0  0  0  0  0  0
   -7.5281    5.9185   -6.9215 N   0  0  0  0  0  0  0  0  0  0  0  0
   -8.5531    5.1966   -6.1499 C   0  0  0  0  0  0  0  0  0  0  0  0
   -9.0492    3.8531   -6.6797 C   0  0  0  0  0  0  0  0  0  0  0  0
   -6.3469    5.0790   -7.2346 C   0  0  0  0  0  0  0  0  0  0  0  0
   -8.4948    4.3414  -15.9662 C   0  0  0  0  0  0  0  0  0  0  0  0
   -8.1436    4.2607  -17.3106 C   0  0  0  0  0  0  0  0  0  0  0  0
   -9.1899    3.8423  -18.3063 C   0  0  0  0  0  0  0  0  0  0  0  0
   -9.4437    2.3916  -18.6016 C   0  0  0  0  0  0  0  0  0  0  0  0
   -8.7682    3.2555  -19.6253 C   0  0  0  0  0  0  0  0  0  0  0  0
   -6.9262    4.6385  -17.7803 N   0  0  0  0  0  0  0  0  0  0  0  0
   -6.0988    5.1706  -16.8683 C   0  0  0  0  0  0  0  0  0  0  0  0
  1  2  1  0
  2  3  1  0
  3  4  1  0
  4  5  2  0
  4  6  1  0
  6  7  1  0
  7  8  1  0
  8  9  2  0
  9 10  1  0
 10 11  1  0
 11 12  1  0
  9 13  1  0
 13 14  2  0
 14 15  1  0
 15 16  2  0
 15 17  1  0
 17 18  1  0
 18 19  2  0
 19 20  1  0
 20 21  2  0
 21 22  1  0
 22 23  2  0
 22 24  1  0
 24 25  1  0
 25 26  1  0
 26 27  1  0
 25 28  1  0
 14 29  1  0
 29 30  2  0
 30 31  1  0
 31 32  1  0
 32 33  1  0
 30 34  1  0
 34 35  2  0
 35  7  1  0
 12 10  1  0
 35 13  1  0
 23 18  1  0
 33 31  1  0
 28 21  1  0
M  END
>  <name>  (881) 
P125895

>  <alias>  (881) 
None

>  <smina_score_min>  (881) 
-7.383

>  <exports>  (881) 
['/opt/xchem-fragalysis-2/maxwin/BulkDock/OUTPUTS/openbind_xx01zvns2b_c2_elabs_1LOUTNY.sdf', '/opt/xchem-fragalysis-2/maxwin/BulkDock/OUTPUTS/openbind_xx01zvns2b_c2_elabs_1LSYIIV.sdf']

>  <tags>  (881) 
syndirella_placed,openbind_xx01zvns2b_c2_elabs,openbind_xx01zvns2b_c2_elabs_scored_6.2plus,syndirella_product,openbind_xx01zvns2b_c2_elabs_scored,openbind_xx01zvns2b_c2_elabs_scored_top80percent,BulkDock Fragalysis export

>  <subsites>  (881) 
1 - Z4590/B/203/1

>  <smiles>  (881) 
CCNC(=O)Cn1nc(C2CC2)c2c(C(=O)Nc3ccc4c(c3)CN(CC)C4)cc(C3CC3)nc21

>  <HIPPO Pose ID>  (881) 
125895

>  <energy_score>  (881) 
-60.416493

>  <inchikey>  (881) 
NFBIZDOGNKRGLE-UHFFFAOYSA-N

>  <gnina_score_min>  (881) 
6.262

>  <gnina_score>  (881) 
6.262

>  <ref_mols>  (881) 
Z3559a

>  <HIPPO Compound ID>  (881) 
188042

>  <distance_score>  (881) 
1.973911

>  <rmsd(smina/fragmenstein)>  (881) 
0.452

>  <ref_pdb>  (881) 
Z3559a

>  <inspiration_score>  (881) 
None

$$$$
P125896
     RDKit          3D

 35 40  0  0  0  0  0  0  0  0999 V2000
   -3.0423   10.2746  -20.4887 C   0  0  0  0  0  0  0  0  0  0  0  0
   -3.0974    9.6634  -19.1020 C   0  0  0  0  0  0  0  0  0  0  0  0
   -3.6076    8.3188  -19.1396 N   0  0  0  0  0  0  0  0  0  0  0  0
   -4.9567    7.8222  -19.2413 C   0  0  0  0  0  0  0  0  0  0  0  0
   -5.9951    8.4032  -19.4003 O   0  0  0  0  0  0  0  0  0  0  0  0
   -4.9481    6.2874  -19.1699 C   0  0  0  0  0  0  0  0  0  0  0  0
   -5.0259    5.8623  -17.7906 N   0  0  0  0  0  0  0  0  0  0  0  0
   -4.0411    6.1980  -16.9238 N   0  0  0  0  0  0  0  0  0  0  0  0
   -4.6115    5.9821  -15.7308 C   0  0  0  0  0  0  0  0  0  0  0  0
   -3.8791    6.3646  -14.4146 C   0  0  0  0  0  0  0  0  0  0  0  0
   -2.4894    5.8249  -14.1790 C   0  0  0  0  0  0  0  0  0  0  0  0
   -3.6324    5.3386  -13.3400 C   0  0  0  0  0  0  0  0  0  0  0  0
   -5.9124    5.4316  -15.8301 C   0  0  0  0  0  0  0  0  0  0  0  0
   -6.9930    5.0748  -15.0141 C   0  0  0  0  0  0  0  0  0  0  0  0
   -7.0100    5.4531  -13.5832 C   0  0  0  0  0  0  0  0  0  0  0  0
   -6.6533    6.5685  -13.3322 O   0  0  0  0  0  0  0  0  0  0  0  0
   -7.5471    4.4296  -12.7384 N   0  0  0  0  0  0  0  0  0  0  0  0
   -7.7321    4.3872  -11.3618 C   0  0  0  0  0  0  0  0  0  0  0  0
   -7.2606    5.4140  -10.5181 C   0  0  0  0  0  0  0  0  0  0  0  0
   -7.4728    5.3729   -9.1334 C   0  0  0  0  0  0  0  0  0  0  0  0
   -8.1827    4.3067   -8.6214 C   0  0  0  0  0  0  0  0  0  0  0  0
   -8.6537    3.3114   -9.4747 C   0  0  0  0  0  0  0  0  0  0  0  0
   -8.4299    3.3056  -10.8350 C   0  0  0  0  0  0  0  0  0  0  0  0
   -9.4327    2.3635   -8.6842 C   0  0  0  0  0  0  0  0  0  0  0  0
   -9.9480    1.3580   -9.1262 O   0  0  0  0  0  0  0  0  0  0  0  0
   -9.4593    2.8536   -7.3877 N   0  0  0  0  0  0  0  0  0  0  0  0
   -9.7903    1.9813   -6.2964 C   0  0  0  0  0  0  0  0  0  0  0  0
   -8.5755    3.9890   -7.2187 C   0  0  0  0  0  0  0  0  0  0  0  0
   -8.1265    4.5138  -15.6250 C   0  0  0  0  0  0  0  0  0  0  0  0
   -8.1730    4.3401  -17.0104 C   0  0  0  0  0  0  0  0  0  0  0  0
   -9.4371    3.8017  -17.6497 C   0  0  0  0  0  0  0  0  0  0  0  0
   -9.7254    4.0252  -19.1128 C   0  0  0  0  0  0  0  0  0  0  0  0
   -9.3594    2.6554  -18.6281 C   0  0  0  0  0  0  0  0  0  0  0  0
   -7.1570    4.7261  -17.8142 N   0  0  0  0  0  0  0  0  0  0  0  0
   -6.0974    5.2636  -17.1919 C   0  0  0  0  0  0  0  0  0  0  0  0
  1  2  1  0
  2  3  1  0
  3  4  1  0
  4  5  2  0
  4  6  1  0
  6  7  1  0
  7  8  1  0
  8  9  2  0
  9 10  1  0
 10 11  1  0
 11 12  1  0
  9 13  1  0
 13 14  2  0
 14 15  1  0
 15 16  2  0
 15 17  1  0
 17 18  1  0
 18 19  2  0
 19 20  1  0
 20 21  2  0
 21 22  1  0
 22 23  2  0
 22 24  1  0
 24 25  2  0
 24 26  1  0
 26 27  1  0
 26 28  1  0
 14 29  1  0
 29 30  2  0
 30 31  1  0
 31 32  1  0
 32 33  1  0
 30 34  1  0
 34 35  2  0
 35  7  1  0
 12 10  1  0
 35 13  1  0
 23 18  1  0
 33 31  1  0
 28 21  1  0
M  END
>  <name>  (882) 
P125896

>  <alias>  (882) 
None

>  <smina_score_min>  (882) 
-8.023

>  <exports>  (882) 
['/opt/xchem-fragalysis-2/maxwin/BulkDock/OUTPUTS/openbind_xx01zvns2b_c2_elabs_1LOUTNY.sdf', '/opt/xchem-fragalysis-2/maxwin/BulkDock/OUTPUTS/openbind_xx01zvns2b_c2_elabs_1LSYIIV.sdf']

>  <tags>  (882) 
syndirella_placed,openbind_xx01zvns2b_c2_elabs,openbind_xx01zvns2b_c2_elabs_scored_6.2plus,syndirella_product,openbind_xx01zvns2b_c2_elabs_scored,openbind_xx01zvns2b_c2_elabs_scored_top80percent,BulkDock Fragalysis export

>  <subsites>  (882) 
1 - Z4590/B/203/1

>  <smiles>  (882) 
CCNC(=O)Cn1nc(C2CC2)c2c(C(=O)Nc3ccc4c(c3)C(=O)N(C)C4)cc(C3CC3)nc21

>  <HIPPO Pose ID>  (882) 
125896

>  <energy_score>  (882) 
-56.414958

>  <inchikey>  (882) 
YRBVOTLXNPOCDR-UHFFFAOYSA-N

>  <gnina_score_min>  (882) 
6.524

>  <gnina_score>  (882) 
6.687

>  <ref_mols>  (882) 
Z3559a

>  <HIPPO Compound ID>  (882) 
188043

>  <distance_score>  (882) 
0.565728

>  <rmsd(smina/fragmenstein)>  (882) 
0.52

>  <ref_pdb>  (882) 
Z3559a

>  <inspiration_score>  (882) 
None

$$$$
P125897
     RDKit          3D

 35 40  0  0  0  0  0  0  0  0999 V2000
   -7.6083    1.1999  -20.4440 C   0  0  0  0  0  0  0  0  0  0  0  0
   -7.1721    2.4921  -21.1067 C   0  0  0  0  0  0  0  0  0  0  0  0
   -6.6366    3.5630  -20.3048 N   0  0  0  0  0  0  0  0  0  0  0  0
   -5.3146    4.3784  -20.4558 C   0  0  0  0  0  0  0  0  0  0  0  0
   -4.4249    4.2501  -21.2095 O   0  0  0  0  0  0  0  0  0  0  0  0
   -5.3171    5.5720  -19.4864 C   0  0  0  0  0  0  0  0  0  0  0  0
   -5.2961    5.2971  -18.0539 N   0  0  0  0  0  0  0  0  0  0  0  0
   -4.3363    5.8030  -17.2427 N   0  0  0  0  0  0  0  0  0  0  0  0
   -4.8739    5.6893  -16.0128 C   0  0  0  0  0  0  0  0  0  0  0  0
   -4.0949    6.1171  -14.7334 C   0  0  0  0  0  0  0  0  0  0  0  0
   -3.9777    7.5871  -14.4205 C   0  0  0  0  0  0  0  0  0  0  0  0
   -2.7630    6.8156  -14.8447 C   0  0  0  0  0  0  0  0  0  0  0  0
   -6.1896    5.1546  -16.0165 C   0  0  0  0  0  0  0  0  0  0  0  0
   -7.2766    4.8556  -15.1627 C   0  0  0  0  0  0  0  0  0  0  0  0
   -7.2494    5.2791  -13.7381 C   0  0  0  0  0  0  0  0  0  0  0  0
   -6.7755    6.3224  -13.5100 O   0  0  0  0  0  0  0  0  0  0  0  0
   -7.8210    4.2024  -12.7774 N   0  0  0  0  0  0  0  0  0  0  0  0
   -8.0081    4.2288  -11.3828 C   0  0  0  0  0  0  0  0  0  0  0  0
   -8.5953    3.1087  -10.7757 C   0  0  0  0  0  0  0  0  0  0  0  0
   -8.7489    3.1183   -9.3944 C   0  0  0  0  0  0  0  0  0  0  0  0
   -8.3215    4.1739   -8.5916 C   0  0  0  0  0  0  0  0  0  0  0  0
   -7.7581    5.2900   -9.1715 C   0  0  0  0  0  0  0  0  0  0  0  0
   -7.6133    5.3122  -10.5644 C   0  0  0  0  0  0  0  0  0  0  0  0
   -7.0586    6.4154  -11.0800 F   0  0  0  0  0  0  0  0  0  0  0  0
   -8.5832    3.8704   -7.1558 C   0  0  0  0  0  0  0  0  0  0  0  0
   -9.2587    2.6056   -7.2202 N   0  0  0  0  0  0  0  0  0  0  0  0
   -9.3734    2.1270   -8.5078 C   0  0  0  0  0  0  0  0  0  0  0  0
   -9.9312    1.1074   -8.8488 O   0  0  0  0  0  0  0  0  0  0  0  0
   -8.4336    4.2820  -15.7354 C   0  0  0  0  0  0  0  0  0  0  0  0
   -8.4785    4.0345  -17.1060 C   0  0  0  0  0  0  0  0  0  0  0  0
   -9.6173    3.3855  -17.8344 C   0  0  0  0  0  0  0  0  0  0  0  0
  -10.9158    4.0707  -18.1544 C   0  0  0  0  0  0  0  0  0  0  0  0
   -9.9036    3.9206  -19.2267 C   0  0  0  0  0  0  0  0  0  0  0  0
   -7.4659    4.3584  -17.9168 N   0  0  0  0  0  0  0  0  0  0  0  0
   -6.3879    4.8831  -17.3511 C   0  0  0  0  0  0  0  0  0  0  0  0
  1  2  1  0
  2  3  1  0
  3  4  1  0
  4  5  2  0
  4  6  1  0
  6  7  1  0
  7  8  1  0
  8  9  2  0
  9 10  1  0
 10 11  1  0
 11 12  1  0
  9 13  1  0
 13 14  2  0
 14 15  1  0
 15 16  2  0
 15 17  1  0
 17 18  1  0
 18 19  2  0
 19 20  1  0
 20 21  2  0
 21 22  1  0
 22 23  2  0
 23 24  1  0
 21 25  1  0
 25 26  1  0
 26 27  1  0
 27 28  2  0
 14 29  1  0
 29 30  2  0
 30 31  1  0
 31 32  1  0
 32 33  1  0
 30 34  1  0
 34 35  2  0
 35  7  1  0
 12 10  1  0
 35 13  1  0
 23 18  1  0
 33 31  1  0
 27 20  1  0
M  END
>  <name>  (883) 
P125897

>  <alias>  (883) 
None

>  <smina_score_min>  (883) 
-8.743

>  <exports>  (883) 
['/opt/xchem-fragalysis-2/maxwin/BulkDock/OUTPUTS/openbind_xx01zvns2b_c2_elabs_1LOUTNY.sdf', '/opt/xchem-fragalysis-2/maxwin/BulkDock/OUTPUTS/openbind_xx01zvns2b_c2_elabs_1LSYIIV.sdf']

>  <tags>  (883) 
syndirella_placed,openbind_xx01zvns2b_c2_elabs,openbind_xx01zvns2b_c2_elabs_scored_6.2plus,syndirella_product,openbind_xx01zvns2b_c2_elabs_scored,openbind_xx01zvns2b_c2_elabs_scored_top80percent,BulkDock Fragalysis export

>  <subsites>  (883) 
1 - Z4590/B/203/1

>  <smiles>  (883) 
CCNC(=O)Cn1nc(C2CC2)c2c(C(=O)Nc3cc4c(cc3F)CNC4=O)cc(C3CC3)nc21

>  <HIPPO Pose ID>  (883) 
125897

>  <energy_score>  (883) 
-57.361341

>  <inchikey>  (883) 
LQEYWXNYSIZGFY-UHFFFAOYSA-N

>  <gnina_score_min>  (883) 
6.514

>  <gnina_score>  (883) 
6.851

>  <ref_mols>  (883) 
Z3559a

>  <HIPPO Compound ID>  (883) 
188047

>  <distance_score>  (883) 
0.55344

>  <rmsd(smina/fragmenstein)>  (883) 
1.455

>  <ref_pdb>  (883) 
Z3559a

>  <inspiration_score>  (883) 
None

$$$$
P125898
     RDKit          3D

 35 40  0  0  0  0  0  0  0  0999 V2000
   -4.8403    5.0373  -23.0392 C   0  0  0  0  0  0  0  0  0  0  0  0
   -5.1882    4.1979  -21.8256 C   0  0  0  0  0  0  0  0  0  0  0  0
   -5.1038    4.9749  -20.6230 N   0  0  0  0  0  0  0  0  0  0  0  0
   -3.8840    5.3029  -19.7173 C   0  0  0  0  0  0  0  0  0  0  0  0
   -2.7791    4.9270  -19.7707 O   0  0  0  0  0  0  0  0  0  0  0  0
   -4.3147    6.3546  -18.7115 C   0  0  0  0  0  0  0  0  0  0  0  0
   -4.6613    5.8118  -17.4151 N   0  0  0  0  0  0  0  0  0  0  0  0
   -3.9344    6.1494  -16.3286 N   0  0  0  0  0  0  0  0  0  0  0  0
   -4.7375    5.8318  -15.3056 C   0  0  0  0  0  0  0  0  0  0  0  0
   -4.3073    6.0188  -13.8197 C   0  0  0  0  0  0  0  0  0  0  0  0
   -3.0330    6.7521  -13.4832 C   0  0  0  0  0  0  0  0  0  0  0  0
   -4.3597    7.3993  -13.2172 C   0  0  0  0  0  0  0  0  0  0  0  0
   -5.9880    5.3148  -15.7223 C   0  0  0  0  0  0  0  0  0  0  0  0
   -7.2272    4.9355  -15.1759 C   0  0  0  0  0  0  0  0  0  0  0  0
   -7.5334    5.3520  -13.7844 C   0  0  0  0  0  0  0  0  0  0  0  0
   -7.3617    6.4832  -13.5468 O   0  0  0  0  0  0  0  0  0  0  0  0
   -7.9347    4.1823  -12.8554 N   0  0  0  0  0  0  0  0  0  0  0  0
   -8.1107    4.1428  -11.4644 C   0  0  0  0  0  0  0  0  0  0  0  0
   -7.7493    5.2668  -10.6838 C   0  0  0  0  0  0  0  0  0  0  0  0
   -7.8182    5.2441   -9.2844 C   0  0  0  0  0  0  0  0  0  0  0  0
   -8.2885    4.0909   -8.6959 C   0  0  0  0  0  0  0  0  0  0  0  0
   -8.7034    3.0077   -9.4506 C   0  0  0  0  0  0  0  0  0  0  0  0
   -8.6016    2.9910  -10.8371 C   0  0  0  0  0  0  0  0  0  0  0  0
   -9.2669    2.0375   -8.5067 C   0  0  0  0  0  0  0  0  0  0  0  0
   -9.9207    1.0606   -8.8045 O   0  0  0  0  0  0  0  0  0  0  0  0
   -9.0296    2.5181   -7.2547 N   0  0  0  0  0  0  0  0  0  0  0  0
   -8.4829    3.7607   -7.2822 C   0  0  0  0  0  0  0  0  0  0  0  0
   -8.2124    4.4929   -6.3484 O   0  0  0  0  0  0  0  0  0  0  0  0
   -8.2020    4.4272  -16.0498 C   0  0  0  0  0  0  0  0  0  0  0  0
   -7.9386    4.3735  -17.4332 C   0  0  0  0  0  0  0  0  0  0  0  0
   -8.9116    3.8943  -18.4840 C   0  0  0  0  0  0  0  0  0  0  0  0
   -9.4848    2.5126  -18.3798 C   0  0  0  0  0  0  0  0  0  0  0  0
  -10.3819    3.7206  -18.2844 C   0  0  0  0  0  0  0  0  0  0  0  0
   -6.7818    4.8231  -17.9725 N   0  0  0  0  0  0  0  0  0  0  0  0
   -5.8682    5.2515  -17.0975 C   0  0  0  0  0  0  0  0  0  0  0  0
  1  2  1  0
  2  3  1  0
  3  4  1  0
  4  5  2  0
  4  6  1  0
  6  7  1  0
  7  8  1  0
  8  9  2  0
  9 10  1  0
 10 11  1  0
 11 12  1  0
  9 13  1  0
 13 14  2  0
 14 15  1  0
 15 16  2  0
 15 17  1  0
 17 18  1  0
 18 19  2  0
 19 20  1  0
 20 21  2  0
 21 22  1  0
 22 23  2  0
 22 24  1  0
 24 25  2  0
 24 26  1  0
 26 27  1  0
 27 28  2  0
 14 29  1  0
 29 30  2  0
 30 31  1  0
 31 32  1  0
 32 33  1  0
 30 34  1  0
 34 35  2  0
 35  7  1  0
 12 10  1  0
 35 13  1  0
 23 18  1  0
 33 31  1  0
 27 21  1  0
M  END
>  <name>  (884) 
P125898

>  <alias>  (884) 
None

>  <smina_score_min>  (884) 
-9.437

>  <exports>  (884) 
['/opt/xchem-fragalysis-2/maxwin/BulkDock/OUTPUTS/openbind_xx01zvns2b_c2_elabs_1LOUTNY.sdf', '/opt/xchem-fragalysis-2/maxwin/BulkDock/OUTPUTS/openbind_xx01zvns2b_c2_elabs_1LSYIIV.sdf']

>  <tags>  (884) 
syndirella_placed,openbind_xx01zvns2b_c2_elabs,openbind_xx01zvns2b_c2_elabs_scored_6.2plus,syndirella_product,openbind_xx01zvns2b_c2_elabs_scored,openbind_xx01zvns2b_c2_elabs_scored_top80percent,BulkDock Fragalysis export

>  <subsites>  (884) 
1 - Z4590/B/203/1

>  <smiles>  (884) 
CCNC(=O)Cn1nc(C2CC2)c2c(C(=O)Nc3ccc4c(c3)C(=O)NC4=O)cc(C3CC3)nc21

>  <HIPPO Pose ID>  (884) 
125898

>  <energy_score>  (884) 
-44.223132

>  <inchikey>  (884) 
KQDXWHFUZZNKFE-UHFFFAOYSA-N

>  <gnina_score_min>  (884) 
6.517

>  <gnina_score>  (884) 
6.764

>  <ref_mols>  (884) 
Z3559a

>  <HIPPO Compound ID>  (884) 
188048

>  <distance_score>  (884) 
0.619156

>  <rmsd(smina/fragmenstein)>  (884) 
0.689

>  <ref_pdb>  (884) 
Z3559a

>  <inspiration_score>  (884) 
None

$$$$
P125899
     RDKit          3D

 35 40  0  0  0  0  0  0  0  0999 V2000
   -3.6150   10.1699  -15.9600 C   0  0  0  0  0  0  0  0  0  0  0  0
   -3.9911    9.9683  -17.4209 C   0  0  0  0  0  0  0  0  0  0  0  0
   -2.8942   10.4733  -18.3514 C   0  0  0  0  0  0  0  0  0  0  0  0
   -4.2689    8.5754  -17.6884 N   0  0  0  0  0  0  0  0  0  0  0  0
   -5.1819    7.9553  -18.6116 C   0  0  0  0  0  0  0  0  0  0  0  0
   -6.0041    8.4365  -19.3406 O   0  0  0  0  0  0  0  0  0  0  0  0
   -4.9454    6.4335  -18.6598 C   0  0  0  0  0  0  0  0  0  0  0  0
   -5.0552    5.8386  -17.3434 N   0  0  0  0  0  0  0  0  0  0  0  0
   -4.0659    6.0283  -16.4352 N   0  0  0  0  0  0  0  0  0  0  0  0
   -4.6687    5.7138  -15.2777 C   0  0  0  0  0  0  0  0  0  0  0  0
   -3.9224    5.7834  -13.9112 C   0  0  0  0  0  0  0  0  0  0  0  0
   -3.7358    7.1220  -13.2462 C   0  0  0  0  0  0  0  0  0  0  0  0
   -2.5514    6.4079  -13.8254 C   0  0  0  0  0  0  0  0  0  0  0  0
   -6.0050    5.2642  -15.4491 C   0  0  0  0  0  0  0  0  0  0  0  0
   -7.1255    4.8906  -14.6851 C   0  0  0  0  0  0  0  0  0  0  0  0
   -7.1755    5.2184  -13.2360 C   0  0  0  0  0  0  0  0  0  0  0  0
   -6.7052    6.2841  -12.9550 O   0  0  0  0  0  0  0  0  0  0  0  0
   -7.8114    4.2272  -12.4141 N   0  0  0  0  0  0  0  0  0  0  0  0
   -7.9925    4.1631  -11.0277 C   0  0  0  0  0  0  0  0  0  0  0  0
   -7.5606    5.2223  -10.1993 C   0  0  0  0  0  0  0  0  0  0  0  0
   -7.7220    5.1829   -8.8083 C   0  0  0  0  0  0  0  0  0  0  0  0
   -8.3371    4.0769   -8.2602 C   0  0  0  0  0  0  0  0  0  0  0  0
   -8.7805    3.0431   -9.0855 C   0  0  0  0  0  0  0  0  0  0  0  0
   -8.6131    3.0480  -10.4620 C   0  0  0  0  0  0  0  0  0  0  0  0
   -9.4360    2.0501   -8.2253 C   0  0  0  0  0  0  0  0  0  0  0  0
   -9.9733    1.0260   -8.5884 O   0  0  0  0  0  0  0  0  0  0  0  0
   -9.3624    2.5218   -6.9305 N   0  0  0  0  0  0  0  0  0  0  0  0
   -8.6429    3.7615   -6.8358 C   0  0  0  0  0  0  0  0  0  0  0  0
   -8.2513    4.4079  -15.3738 C   0  0  0  0  0  0  0  0  0  0  0  0
   -8.2571    4.3432  -16.7739 C   0  0  0  0  0  0  0  0  0  0  0  0
   -9.4889    3.8510  -17.5113 C   0  0  0  0  0  0  0  0  0  0  0  0
   -9.6744    4.1155  -18.9872 C   0  0  0  0  0  0  0  0  0  0  0  0
   -9.3665    2.7286  -18.5163 C   0  0  0  0  0  0  0  0  0  0  0  0
   -7.2181    4.7893  -17.5152 N   0  0  0  0  0  0  0  0  0  0  0  0
   -6.1605    5.2300  -16.8235 C   0  0  0  0  0  0  0  0  0  0  0  0
  1  2  1  0
  2  3  1  0
  2  4  1  0
  4  5  1  0
  5  6  2  0
  5  7  1  0
  7  8  1  0
  8  9  1  0
  9 10  2  0
 10 11  1  0
 11 12  1  0
 12 13  1  0
 10 14  1  0
 14 15  2  0
 15 16  1  0
 16 17  2  0
 16 18  1  0
 18 19  1  0
 19 20  2  0
 20 21  1  0
 21 22  2  0
 22 23  1  0
 23 24  2  0
 23 25  1  0
 25 26  2  0
 25 27  1  0
 27 28  1  0
 15 29  1  0
 29 30  2  0
 30 31  1  0
 31 32  1  0
 32 33  1  0
 30 34  1  0
 34 35  2  0
 35  8  1  0
 13 11  1  0
 35 14  1  0
 24 19  1  0
 33 31  1  0
 28 22  1  0
M  END
>  <name>  (885) 
P125899

>  <alias>  (885) 
None

>  <smina_score_min>  (885) 
-8.539

>  <exports>  (885) 
['/opt/xchem-fragalysis-2/maxwin/BulkDock/OUTPUTS/openbind_xx01zvns2b_c2_elabs_1LOUTNY.sdf', '/opt/xchem-fragalysis-2/maxwin/BulkDock/OUTPUTS/openbind_xx01zvns2b_c2_elabs_1LSYIIV.sdf']

>  <tags>  (885) 
syndirella_placed,openbind_xx01zvns2b_c2_elabs,openbind_xx01zvns2b_c2_elabs_scored_6.2plus,syndirella_product,openbind_xx01zvns2b_c2_elabs_scored,openbind_xx01zvns2b_c2_elabs_scored_top80percent,BulkDock Fragalysis export

>  <subsites>  (885) 
1 - Z4590/B/203/1

>  <smiles>  (885) 
CC(C)NC(=O)Cn1nc(C2CC2)c2c(C(=O)Nc3ccc4c(c3)C(=O)NC4)cc(C3CC3)nc21

>  <HIPPO Pose ID>  (885) 
125899

>  <energy_score>  (885) 
-52.430352

>  <inchikey>  (885) 
LXRHYVYTWNBINT-UHFFFAOYSA-N

>  <gnina_score_min>  (885) 
6.533

>  <gnina_score>  (885) 
6.695

>  <ref_mols>  (885) 
Z3559a

>  <HIPPO Compound ID>  (885) 
188049

>  <distance_score>  (885) 
0.494575

>  <rmsd(smina/fragmenstein)>  (885) 
0.885

>  <ref_pdb>  (885) 
Z3559a

>  <inspiration_score>  (885) 
None

$$$$
P125901
     RDKit          3D

 35 40  0  0  0  0  0  0  0  0999 V2000
   -1.0060    6.4709  -20.3276 C   0  0  0  0  0  0  0  0  0  0  0  0
   -2.3949    5.9279  -20.1848 C   0  0  0  0  0  0  0  0  0  0  0  0
   -3.0489    5.3829  -21.2676 C   0  0  0  0  0  0  0  0  0  0  0  0
   -4.3215    4.9014  -21.0395 C   0  0  0  0  0  0  0  0  0  0  0  0
   -5.0941    4.2604  -22.1467 C   0  0  0  0  0  0  0  0  0  0  0  0
   -4.9183    4.9608  -19.8330 N   0  0  0  0  0  0  0  0  0  0  0  0
   -4.2206    5.5080  -18.8219 C   0  0  0  0  0  0  0  0  0  0  0  0
   -4.7942    5.5587  -17.5057 N   0  0  0  0  0  0  0  0  0  0  0  0
   -4.0885    6.1250  -16.4726 N   0  0  0  0  0  0  0  0  0  0  0  0
   -4.8901    6.0314  -15.4110 C   0  0  0  0  0  0  0  0  0  0  0  0
   -4.4098    6.5442  -14.1021 C   0  0  0  0  0  0  0  0  0  0  0  0
   -6.1279    5.4244  -15.7327 C   0  0  0  0  0  0  0  0  0  0  0  0
   -7.3282    5.0985  -15.0824 C   0  0  0  0  0  0  0  0  0  0  0  0
   -7.5328    5.5504  -13.6942 C   0  0  0  0  0  0  0  0  0  0  0  0
   -7.3292    6.6714  -13.4458 O   0  0  0  0  0  0  0  0  0  0  0  0
   -7.9355    4.3812  -12.7757 N   0  0  0  0  0  0  0  0  0  0  0  0
   -8.0751    4.3252  -11.3953 C   0  0  0  0  0  0  0  0  0  0  0  0
   -7.6668    5.4047  -10.5840 C   0  0  0  0  0  0  0  0  0  0  0  0
   -7.7931    5.3581   -9.1901 C   0  0  0  0  0  0  0  0  0  0  0  0
   -8.3673    4.2347   -8.6354 C   0  0  0  0  0  0  0  0  0  0  0  0
   -8.7873    3.1899   -9.4578 C   0  0  0  0  0  0  0  0  0  0  0  0
   -8.6273    3.1838  -10.8276 C   0  0  0  0  0  0  0  0  0  0  0  0
   -9.4861    2.2160   -8.6261 C   0  0  0  0  0  0  0  0  0  0  0  0
   -9.9731    1.1819   -9.0302 O   0  0  0  0  0  0  0  0  0  0  0  0
   -9.5081    2.7332   -7.3427 N   0  0  0  0  0  0  0  0  0  0  0  0
   -9.8176    1.8857   -6.2301 C   0  0  0  0  0  0  0  0  0  0  0  0
   -8.6764    3.9092   -7.2138 C   0  0  0  0  0  0  0  0  0  0  0  0
   -8.3266    4.4290  -15.7913 C   0  0  0  0  0  0  0  0  0  0  0  0
   -8.1147    4.1187  -17.1314 C   0  0  0  0  0  0  0  0  0  0  0  0
   -9.1578    3.3649  -17.9200 C   0  0  0  0  0  0  0  0  0  0  0  0
  -10.5027    3.9497  -18.2818 C   0  0  0  0  0  0  0  0  0  0  0  0
   -9.4355    3.8520  -19.3180 C   0  0  0  0  0  0  0  0  0  0  0  0
   -6.9812    4.4585  -17.7909 N   0  0  0  0  0  0  0  0  0  0  0  0
   -6.0336    5.0968  -17.0769 C   0  0  0  0  0  0  0  0  0  0  0  0
   -2.9691    6.0094  -18.9708 N   0  0  0  0  0  0  0  0  0  0  0  0
  1  2  1  0
  2  3  2  0
  3  4  1  0
  4  5  1  0
  4  6  2  0
  6  7  1  0
  7  8  1  0
  8  9  1  0
  9 10  2  0
 10 11  1  0
 10 12  1  0
 12 13  2  0
 13 14  1  0
 14 15  2  0
 14 16  1  0
 16 17  1  0
 17 18  2  0
 18 19  1  0
 19 20  2  0
 20 21  1  0
 21 22  2  0
 21 23  1  0
 23 24  2  0
 23 25  1  0
 25 26  1  0
 25 27  1  0
 13 28  1  0
 28 29  2  0
 29 30  1  0
 30 31  1  0
 31 32  1  0
 29 33  1  0
 33 34  2  0
  7 35  2  0
 35  2  1  0
 34  8  1  0
 34 12  1  0
 22 17  1  0
 32 30  1  0
 27 20  1  0
M  END
>  <name>  (886) 
P125901

>  <alias>  (886) 
None

>  <smina_score_min>  (886) 
-9.794

>  <exports>  (886) 
['/opt/xchem-fragalysis-2/maxwin/BulkDock/OUTPUTS/openbind_xx01zvns2b_c2_elabs_1LOUTNY.sdf', '/opt/xchem-fragalysis-2/maxwin/BulkDock/OUTPUTS/openbind_xx01zvns2b_c2_elabs_1LSYIIV.sdf']

>  <tags>  (886) 
syndirella_placed,openbind_xx01zvns2b_c2_elabs,openbind_xx01zvns2b_c2_elabs_scored_6.2plus,syndirella_product,openbind_xx01zvns2b_c2_elabs_scored,openbind_xx01zvns2b_c2_elabs_scored_top80percent,BulkDock Fragalysis export

>  <subsites>  (886) 
1 - Z4590/B/203/1

>  <smiles>  (886) 
Cc1cc(C)nc(-n2nc(C)c3c(C(=O)Nc4ccc5c(c4)C(=O)N(C)C5)cc(C4CC4)nc32)n1

>  <HIPPO Pose ID>  (886) 
125901

>  <energy_score>  (886) 
-66.53117

>  <inchikey>  (886) 
JHNQJZDEJFIIBM-UHFFFAOYSA-N

>  <gnina_score_min>  (886) 
6.797

>  <gnina_score>  (886) 
6.789

>  <ref_mols>  (886) 
Z3559a

>  <HIPPO Compound ID>  (886) 
188051

>  <distance_score>  (886) 
0.619084

>  <rmsd(smina/fragmenstein)>  (886) 
0.705

>  <ref_pdb>  (886) 
Z3559a

>  <inspiration_score>  (886) 
None

$$$$
P125903
     RDKit          3D

 35 41  0  0  0  0  0  0  0  0999 V2000
   -8.0297    4.3113   -6.0942 O   0  0  0  0  0  0  0  0  0  0  0  0
   -8.4148    3.6493   -7.0406 C   0  0  0  0  0  0  0  0  0  0  0  0
   -9.0386    2.4420   -7.0341 N   0  0  0  0  0  0  0  0  0  0  0  0
   -9.3029    1.9944   -8.2937 C   0  0  0  0  0  0  0  0  0  0  0  0
   -9.9396    1.0122   -8.6109 O   0  0  0  0  0  0  0  0  0  0  0  0
   -8.7514    2.9855   -9.2210 C   0  0  0  0  0  0  0  0  0  0  0  0
   -8.6970    3.0101  -10.6075 C   0  0  0  0  0  0  0  0  0  0  0  0
   -8.1663    4.1564  -11.2118 C   0  0  0  0  0  0  0  0  0  0  0  0
   -8.0462    4.2236  -12.6032 N   0  0  0  0  0  0  0  0  0  0  0  0
   -7.6220    5.3972  -13.5206 C   0  0  0  0  0  0  0  0  0  0  0  0
   -7.3817    6.5109  -13.2627 O   0  0  0  0  0  0  0  0  0  0  0  0
   -7.4349    4.9818  -14.9298 C   0  0  0  0  0  0  0  0  0  0  0  0
   -8.4594    4.3636  -15.6555 C   0  0  0  0  0  0  0  0  0  0  0  0
   -8.2740    4.0899  -17.0094 C   0  0  0  0  0  0  0  0  0  0  0  0
   -9.3110    3.3606  -17.8239 C   0  0  0  0  0  0  0  0  0  0  0  0
   -9.5115    3.8180  -19.2485 C   0  0  0  0  0  0  0  0  0  0  0  0
  -10.6140    3.9838  -18.2587 C   0  0  0  0  0  0  0  0  0  0  0  0
   -7.1502    4.4330  -17.6700 N   0  0  0  0  0  0  0  0  0  0  0  0
   -6.1794    5.0224  -16.9541 C   0  0  0  0  0  0  0  0  0  0  0  0
   -6.2340    5.2979  -15.5965 C   0  0  0  0  0  0  0  0  0  0  0  0
   -4.9573    5.8286  -15.3141 C   0  0  0  0  0  0  0  0  0  0  0  0
   -4.4558    6.2479  -13.8995 C   0  0  0  0  0  0  0  0  0  0  0  0
   -3.1762    7.0329  -13.7479 C   0  0  0  0  0  0  0  0  0  0  0  0
   -4.4965    7.7074  -13.5234 C   0  0  0  0  0  0  0  0  0  0  0  0
   -4.1620    5.8936  -16.3831 N   0  0  0  0  0  0  0  0  0  0  0  0
   -4.9318    5.4352  -17.4110 N   0  0  0  0  0  0  0  0  0  0  0  0
   -4.4004    5.4104  -18.7366 C   0  0  0  0  0  0  0  0  0  0  0  0
   -3.0250    5.6312  -18.9266 C   0  0  0  0  0  0  0  0  0  0  0  0
   -2.4647    5.5607  -20.2049 C   0  0  0  0  0  0  0  0  0  0  0  0
   -3.2732    5.2962  -21.3074 C   0  0  0  0  0  0  0  0  0  0  0  0
   -4.6412    5.1006  -21.1318 C   0  0  0  0  0  0  0  0  0  0  0  0
   -5.2051    5.1529  -19.8525 C   0  0  0  0  0  0  0  0  0  0  0  0
   -7.7159    5.2330  -10.4142 C   0  0  0  0  0  0  0  0  0  0  0  0
   -7.7493    5.1703   -9.0156 C   0  0  0  0  0  0  0  0  0  0  0  0
   -8.2642    4.0248   -8.4483 C   0  0  0  0  0  0  0  0  0  0  0  0
  1  2  2  0
  2  3  1  0
  3  4  1  0
  4  5  2  0
  4  6  1  0
  6  7  2  0
  7  8  1  0
  8  9  1  0
  9 10  1  0
 10 11  2  0
 10 12  1  0
 12 13  2  0
 13 14  1  0
 14 15  1  0
 15 16  1  0
 16 17  1  0
 14 18  2  0
 18 19  1  0
 19 20  2  0
 20 21  1  0
 21 22  1  0
 22 23  1  0
 23 24  1  0
 21 25  2  0
 25 26  1  0
 26 27  1  0
 27 28  2  0
 28 29  1  0
 29 30  2  0
 30 31  1  0
 31 32  2  0
  8 33  2  0
 33 34  1  0
 34 35  2  0
 35  2  1  0
 35  6  1  0
 20 12  1  0
 24 22  1  0
 32 27  1  0
 17 15  1  0
 26 19  1  0
M  END
>  <name>  (887) 
P125903

>  <alias>  (887) 
None

>  <smina_score_min>  (887) 
-10.081

>  <exports>  (887) 
['/opt/xchem-fragalysis-2/maxwin/BulkDock/OUTPUTS/openbind_xx01zvns2b_c2_elabs_1LOUTNY.sdf', '/opt/xchem-fragalysis-2/maxwin/BulkDock/OUTPUTS/openbind_xx01zvns2b_c2_elabs_1LSYIIV.sdf']

>  <tags>  (887) 
syndirella_placed,openbind_xx01zvns2b_c2_elabs,openbind_xx01zvns2b_c2_elabs_scored_6.2plus,syndirella_product,openbind_xx01zvns2b_c2_elabs_scored,openbind_xx01zvns2b_c2_elabs_scored_top80percent,BulkDock Fragalysis export

>  <subsites>  (887) 
1 - Z4590/B/203/1

>  <smiles>  (887) 
O=C1NC(=O)c2cc(NC(=O)c3cc(C4CC4)nc4c3c(C3CC3)nn4-c3ccccc3)ccc21

>  <HIPPO Pose ID>  (887) 
125903

>  <energy_score>  (887) 
-41.960998

>  <inchikey>  (887) 
DQIDNYKDNJPQAN-UHFFFAOYSA-N

>  <gnina_score_min>  (887) 
6.79

>  <gnina_score>  (887) 
6.814

>  <ref_mols>  (887) 
Z3559a

>  <HIPPO Compound ID>  (887) 
188053

>  <distance_score>  (887) 
0.536767

>  <rmsd(smina/fragmenstein)>  (887) 
0.735

>  <ref_pdb>  (887) 
Z3559a

>  <inspiration_score>  (887) 
None

$$$$
P125904
     RDKit          3D

 35 41  0  0  0  0  0  0  0  0999 V2000
   -9.9883    2.0726   -6.1140 C   0  0  0  0  0  0  0  0  0  0  0  0
   -9.2349    2.6502   -7.1955 N   0  0  0  0  0  0  0  0  0  0  0  0
   -9.1405    1.9985   -8.4913 C   0  0  0  0  0  0  0  0  0  0  0  0
   -8.6056    3.0875   -9.3599 C   0  0  0  0  0  0  0  0  0  0  0  0
   -8.3912    3.1059  -10.7286 C   0  0  0  0  0  0  0  0  0  0  0  0
   -7.9611    4.3041  -11.3128 C   0  0  0  0  0  0  0  0  0  0  0  0
   -7.7940    4.3554  -12.6947 N   0  0  0  0  0  0  0  0  0  0  0  0
   -7.2987    5.5013  -13.6029 C   0  0  0  0  0  0  0  0  0  0  0  0
   -7.0261    6.6059  -13.3457 O   0  0  0  0  0  0  0  0  0  0  0  0
   -7.2033    5.0714  -15.0098 C   0  0  0  0  0  0  0  0  0  0  0  0
   -8.3169    4.5284  -15.6530 C   0  0  0  0  0  0  0  0  0  0  0  0
   -8.2720    4.2758  -17.0222 C   0  0  0  0  0  0  0  0  0  0  0  0
   -9.5217    3.7851  -17.7227 C   0  0  0  0  0  0  0  0  0  0  0  0
   -9.4475    2.6004  -18.6521 C   0  0  0  0  0  0  0  0  0  0  0  0
   -9.7018    3.9692  -19.2072 C   0  0  0  0  0  0  0  0  0  0  0  0
   -7.1683    4.5218  -17.7654 N   0  0  0  0  0  0  0  0  0  0  0  0
   -6.1037    5.0378  -17.1155 C   0  0  0  0  0  0  0  0  0  0  0  0
   -6.0445    5.3185  -15.7568 C   0  0  0  0  0  0  0  0  0  0  0  0
   -4.7317    5.7849  -15.5548 C   0  0  0  0  0  0  0  0  0  0  0  0
   -4.1275    6.1928  -14.1783 C   0  0  0  0  0  0  0  0  0  0  0  0
   -4.0835    7.6556  -13.8166 C   0  0  0  0  0  0  0  0  0  0  0  0
   -2.8090    6.9230  -14.1131 C   0  0  0  0  0  0  0  0  0  0  0  0
   -4.0039    5.7957  -16.6694 N   0  0  0  0  0  0  0  0  0  0  0  0
   -4.8593    5.3782  -17.6463 N   0  0  0  0  0  0  0  0  0  0  0  0
   -4.3978    5.3192  -18.9958 C   0  0  0  0  0  0  0  0  0  0  0  0
   -3.0257    5.4856  -19.2583 C   0  0  0  0  0  0  0  0  0  0  0  0
   -2.5322    5.3801  -20.5613 C   0  0  0  0  0  0  0  0  0  0  0  0
   -3.4041    5.1352  -21.6184 C   0  0  0  0  0  0  0  0  0  0  0  0
   -4.7674    4.9922  -21.3710 C   0  0  0  0  0  0  0  0  0  0  0  0
   -5.2648    5.0768  -20.0653 C   0  0  0  0  0  0  0  0  0  0  0  0
   -7.7316    5.4466  -10.5217 C   0  0  0  0  0  0  0  0  0  0  0  0
   -7.9359    5.4158   -9.1413 C   0  0  0  0  0  0  0  0  0  0  0  0
   -8.3742    4.2283   -8.5941 C   0  0  0  0  0  0  0  0  0  0  0  0
   -8.7883    3.9548   -7.2134 C   0  0  0  0  0  0  0  0  0  0  0  0
   -8.7877    4.7796   -6.3179 O   0  0  0  0  0  0  0  0  0  0  0  0
  1  2  1  0
  2  3  1  0
  3  4  1  0
  4  5  2  0
  5  6  1  0
  6  7  1  0
  7  8  1  0
  8  9  2  0
  8 10  1  0
 10 11  2  0
 11 12  1  0
 12 13  1  0
 13 14  1  0
 14 15  1  0
 12 16  2  0
 16 17  1  0
 17 18  2  0
 18 19  1  0
 19 20  1  0
 20 21  1  0
 21 22  1  0
 19 23  2  0
 23 24  1  0
 24 25  1  0
 25 26  2  0
 26 27  1  0
 27 28  2  0
 28 29  1  0
 29 30  2  0
  6 31  2  0
 31 32  1  0
 32 33  2  0
 33 34  1  0
 34 35  2  0
 34  2  1  0
 33  4  1  0
 18 10  1  0
 22 20  1  0
 30 25  1  0
 15 13  1  0
 24 17  1  0
M  END
>  <name>  (888) 
P125904

>  <alias>  (888) 
None

>  <smina_score_min>  (888) 
-9.953

>  <exports>  (888) 
['/opt/xchem-fragalysis-2/maxwin/BulkDock/OUTPUTS/openbind_xx01zvns2b_c2_elabs_1LOUTNY.sdf', '/opt/xchem-fragalysis-2/maxwin/BulkDock/OUTPUTS/openbind_xx01zvns2b_c2_elabs_1LSYIIV.sdf']

>  <tags>  (888) 
syndirella_placed,openbind_xx01zvns2b_c2_elabs,openbind_xx01zvns2b_c2_elabs_scored_6.2plus,syndirella_product,openbind_xx01zvns2b_c2_elabs_scored,openbind_xx01zvns2b_c2_elabs_scored_top80percent,BulkDock Fragalysis export

>  <subsites>  (888) 
1 - Z4590/B/203/1

>  <smiles>  (888) 
CN1Cc2cc(NC(=O)c3cc(C4CC4)nc4c3c(C3CC3)nn4-c3ccccc3)ccc2C1=O

>  <HIPPO Pose ID>  (888) 
125904

>  <energy_score>  (888) 
-62.60125

>  <inchikey>  (888) 
NXEGWCAWJCDSGT-UHFFFAOYSA-N

>  <gnina_score_min>  (888) 
6.796

>  <gnina_score>  (888) 
6.816

>  <ref_mols>  (888) 
Z3559a

>  <HIPPO Compound ID>  (888) 
188054

>  <distance_score>  (888) 
0.406945

>  <rmsd(smina/fragmenstein)>  (888) 
1.018

>  <ref_pdb>  (888) 
Z3559a

>  <inspiration_score>  (888) 
None

$$$$
P125905
     RDKit          3D

 35 41  0  0  0  0  0  0  0  0999 V2000
   -9.9463    1.0410   -8.7222 O   0  0  0  0  0  0  0  0  0  0  0  0
   -9.3934    2.0609   -8.3731 C   0  0  0  0  0  0  0  0  0  0  0  0
   -9.2727    2.5253   -7.0805 N   0  0  0  0  0  0  0  0  0  0  0  0
   -8.6123    3.7976   -7.0066 C   0  0  0  0  0  0  0  0  0  0  0  0
   -8.3697    4.1244   -8.4404 C   0  0  0  0  0  0  0  0  0  0  0  0
   -7.8266    5.2566   -9.0094 C   0  0  0  0  0  0  0  0  0  0  0  0
   -7.7131    5.3045  -10.4029 C   0  0  0  0  0  0  0  0  0  0  0  0
   -7.1337    6.3983  -10.9138 F   0  0  0  0  0  0  0  0  0  0  0  0
   -8.1232    4.2333  -11.2293 C   0  0  0  0  0  0  0  0  0  0  0  0
   -7.9926    4.2594  -12.6261 N   0  0  0  0  0  0  0  0  0  0  0  0
   -7.6523    5.4281  -13.5823 C   0  0  0  0  0  0  0  0  0  0  0  0
   -7.5037    6.5659  -13.3642 O   0  0  0  0  0  0  0  0  0  0  0  0
   -7.4437    4.9756  -14.9721 C   0  0  0  0  0  0  0  0  0  0  0  0
   -8.4593    4.3432  -15.6945 C   0  0  0  0  0  0  0  0  0  0  0  0
   -8.2640    4.0643  -17.0452 C   0  0  0  0  0  0  0  0  0  0  0  0
   -9.3053    3.3483  -17.8658 C   0  0  0  0  0  0  0  0  0  0  0  0
  -10.6172    3.9768  -18.2656 C   0  0  0  0  0  0  0  0  0  0  0  0
   -9.5261    3.8476  -19.2728 C   0  0  0  0  0  0  0  0  0  0  0  0
   -7.1354    4.4061  -17.7025 N   0  0  0  0  0  0  0  0  0  0  0  0
   -6.1768    5.0151  -16.9857 C   0  0  0  0  0  0  0  0  0  0  0  0
   -6.2450    5.2984  -15.6316 C   0  0  0  0  0  0  0  0  0  0  0  0
   -4.9856    5.8562  -15.3407 C   0  0  0  0  0  0  0  0  0  0  0  0
   -4.5139    6.3037  -13.9286 C   0  0  0  0  0  0  0  0  0  0  0  0
   -3.1274    5.9350  -13.4626 C   0  0  0  0  0  0  0  0  0  0  0  0
   -4.3221    5.2690  -12.8483 C   0  0  0  0  0  0  0  0  0  0  0  0
   -4.1902    5.9585  -16.4068 N   0  0  0  0  0  0  0  0  0  0  0  0
   -4.9442    5.4757  -17.4391 N   0  0  0  0  0  0  0  0  0  0  0  0
   -4.4168    5.4997  -18.7677 C   0  0  0  0  0  0  0  0  0  0  0  0
   -3.0841    5.9019  -18.9681 C   0  0  0  0  0  0  0  0  0  0  0  0
   -2.5322    5.9214  -20.2519 C   0  0  0  0  0  0  0  0  0  0  0  0
   -3.3036    5.5456  -21.3483 C   0  0  0  0  0  0  0  0  0  0  0  0
   -4.6287    5.1601  -21.1619 C   0  0  0  0  0  0  0  0  0  0  0  0
   -5.1867    5.1385  -19.8792 C   0  0  0  0  0  0  0  0  0  0  0  0
   -8.6603    3.0846  -10.6341 C   0  0  0  0  0  0  0  0  0  0  0  0
   -8.7905    3.0717   -9.2520 C   0  0  0  0  0  0  0  0  0  0  0  0
  1  2  2  0
  2  3  1  0
  3  4  1  0
  4  5  1  0
  5  6  2  0
  6  7  1  0
  7  8  1  0
  7  9  2  0
  9 10  1  0
 10 11  1  0
 11 12  2  0
 11 13  1  0
 13 14  2  0
 14 15  1  0
 15 16  1  0
 16 17  1  0
 17 18  1  0
 15 19  2  0
 19 20  1  0
 20 21  2  0
 21 22  1  0
 22 23  1  0
 23 24  1  0
 24 25  1  0
 22 26  2  0
 26 27  1  0
 27 28  1  0
 28 29  2  0
 29 30  1  0
 30 31  2  0
 31 32  1  0
 32 33  2  0
  9 34  1  0
 34 35  2  0
 35  2  1  0
 35  5  1  0
 21 13  1  0
 25 23  1  0
 33 28  1  0
 18 16  1  0
 27 20  1  0
M  END
>  <name>  (889) 
P125905

>  <alias>  (889) 
None

>  <smina_score_min>  (889) 
-10.064

>  <exports>  (889) 
['/opt/xchem-fragalysis-2/maxwin/BulkDock/OUTPUTS/openbind_xx01zvns2b_c2_elabs_1LOUTNY.sdf', '/opt/xchem-fragalysis-2/maxwin/BulkDock/OUTPUTS/openbind_xx01zvns2b_c2_elabs_1LSYIIV.sdf']

>  <tags>  (889) 
syndirella_placed,openbind_xx01zvns2b_c2_elabs,openbind_xx01zvns2b_c2_elabs_scored_6.2plus,syndirella_product,openbind_xx01zvns2b_c2_elabs_scored,openbind_xx01zvns2b_c2_elabs_scored_top80percent,BulkDock Fragalysis export

>  <subsites>  (889) 
1 - Z4590/B/203/1

>  <smiles>  (889) 
O=C1NCc2cc(F)c(NC(=O)c3cc(C4CC4)nc4c3c(C3CC3)nn4-c3ccccc3)cc21

>  <HIPPO Pose ID>  (889) 
125905

>  <energy_score>  (889) 
-68.719581

>  <inchikey>  (889) 
GTRGWESGXLPIBP-UHFFFAOYSA-N

>  <gnina_score_min>  (889) 
6.944

>  <gnina_score>  (889) 
6.973

>  <ref_mols>  (889) 
Z3559a

>  <HIPPO Compound ID>  (889) 
188055

>  <distance_score>  (889) 
0.559409

>  <rmsd(smina/fragmenstein)>  (889) 
0.641

>  <ref_pdb>  (889) 
Z3559a

>  <inspiration_score>  (889) 
None

$$$$
P125906
     RDKit          3D

 35 40  0  0  0  0  0  0  0  0999 V2000
   -3.6061    6.1474  -14.3319 C   0  0  0  0  0  0  0  0  0  0  0  0
   -4.3608    5.7775  -15.5574 C   0  0  0  0  0  0  0  0  0  0  0  0
   -3.7384    5.8372  -16.7340 N   0  0  0  0  0  0  0  0  0  0  0  0
   -4.6381    5.4137  -17.6583 N   0  0  0  0  0  0  0  0  0  0  0  0
   -4.2663    5.3398  -19.0331 C   0  0  0  0  0  0  0  0  0  0  0  0
   -5.2131    5.1068  -20.0397 C   0  0  0  0  0  0  0  0  0  0  0  0
   -4.8157    4.9914  -21.3788 C   0  0  0  0  0  0  0  0  0  0  0  0
   -3.4740    5.1009  -21.7319 C   0  0  0  0  0  0  0  0  0  0  0  0
   -2.5259    5.3386  -20.7428 C   0  0  0  0  0  0  0  0  0  0  0  0
   -2.9198    5.4665  -19.4091 C   0  0  0  0  0  0  0  0  0  0  0  0
   -1.9422    5.6731  -18.5154 F   0  0  0  0  0  0  0  0  0  0  0  0
   -5.8550    5.0954  -17.0507 C   0  0  0  0  0  0  0  0  0  0  0  0
   -6.9641    4.6055  -17.6425 N   0  0  0  0  0  0  0  0  0  0  0  0
   -8.0412    4.4005  -16.8477 C   0  0  0  0  0  0  0  0  0  0  0  0
   -9.3116    3.8733  -17.5289 C   0  0  0  0  0  0  0  0  0  0  0  0
   -9.2164    2.7824  -18.5736 C   0  0  0  0  0  0  0  0  0  0  0  0
   -9.6005    4.1703  -18.9810 C   0  0  0  0  0  0  0  0  0  0  0  0
   -7.9954    4.7043  -15.4742 C   0  0  0  0  0  0  0  0  0  0  0  0
   -9.4362    4.7478  -14.5446 Cl  0  0  0  0  0  0  0  0  0  0  0  0
   -6.8047    5.1166  -14.8589 C   0  0  0  0  0  0  0  0  0  0  0  0
   -6.7384    5.4569  -13.4073 C   0  0  0  0  0  0  0  0  0  0  0  0
   -6.2653    6.4850  -13.1143 O   0  0  0  0  0  0  0  0  0  0  0  0
   -7.3723    4.3499  -12.5186 N   0  0  0  0  0  0  0  0  0  0  0  0
   -7.6311    4.3255  -11.1394 C   0  0  0  0  0  0  0  0  0  0  0  0
   -8.3306    3.2137  -10.6396 C   0  0  0  0  0  0  0  0  0  0  0  0
   -8.6155    3.1779   -9.2824 C   0  0  0  0  0  0  0  0  0  0  0  0
   -8.2222    4.1841   -8.4031 C   0  0  0  0  0  0  0  0  0  0  0  0
   -7.5554    5.2930   -8.8815 C   0  0  0  0  0  0  0  0  0  0  0  0
   -7.2691    5.3581  -10.2505 C   0  0  0  0  0  0  0  0  0  0  0  0
   -6.6083    6.4444  -10.6679 F   0  0  0  0  0  0  0  0  0  0  0  0
   -8.6224    3.8355   -7.0103 C   0  0  0  0  0  0  0  0  0  0  0  0
   -9.3322    2.6000   -7.1863 N   0  0  0  0  0  0  0  0  0  0  0  0
   -9.3502    2.1764   -8.4982 C   0  0  0  0  0  0  0  0  0  0  0  0
   -9.9058    1.1898   -8.9285 O   0  0  0  0  0  0  0  0  0  0  0  0
   -5.6992    5.3437  -15.6908 C   0  0  0  0  0  0  0  0  0  0  0  0
  1  2  1  0
  2  3  2  0
  3  4  1  0
  4  5  1  0
  5  6  2  0
  6  7  1  0
  7  8  2  0
  8  9  1  0
  9 10  2  0
 10 11  1  0
  4 12  1  0
 12 13  2  0
 13 14  1  0
 14 15  1  0
 15 16  1  0
 16 17  1  0
 14 18  2  0
 18 19  1  0
 18 20  1  0
 20 21  1  0
 21 22  2  0
 21 23  1  0
 23 24  1  0
 24 25  2  0
 25 26  1  0
 26 27  2  0
 27 28  1  0
 28 29  2  0
 29 30  1  0
 27 31  1  0
 31 32  1  0
 32 33  1  0
 33 34  2  0
 20 35  2  0
 35  2  1  0
 10  5  1  0
 35 12  1  0
 17 15  1  0
 29 24  1  0
 33 26  1  0
M  END
>  <name>  (890) 
P125906

>  <alias>  (890) 
None

>  <smina_score_min>  (890) 
-8.576

>  <exports>  (890) 
['/opt/xchem-fragalysis-2/maxwin/BulkDock/OUTPUTS/openbind_xx01zvns2b_c2_elabs_1LOUTNY.sdf', '/opt/xchem-fragalysis-2/maxwin/BulkDock/OUTPUTS/openbind_xx01zvns2b_c2_elabs_1LSYIIV.sdf']

>  <tags>  (890) 
syndirella_placed,openbind_xx01zvns2b_c2_elabs,openbind_xx01zvns2b_c2_elabs_scored_6.2plus,syndirella_product,openbind_xx01zvns2b_c2_elabs_scored,openbind_xx01zvns2b_c2_elabs_scored_top80percent,BulkDock Fragalysis export

>  <subsites>  (890) 
1 - Z4590/B/203/1

>  <smiles>  (890) 
Cc1nn(-c2ccccc2F)c2nc(C3CC3)c(Cl)c(C(=O)Nc3cc4c(cc3F)CNC4=O)c12

>  <HIPPO Pose ID>  (890) 
125906

>  <energy_score>  (890) 
-53.784484

>  <inchikey>  (890) 
OMCLJANWYQQZRW-UHFFFAOYSA-N

>  <gnina_score_min>  (890) 
6.718

>  <gnina_score>  (890) 
6.961

>  <ref_mols>  (890) 
Z3559a

>  <HIPPO Compound ID>  (890) 
188056

>  <distance_score>  (890) 
0.598508

>  <rmsd(smina/fragmenstein)>  (890) 
0.971

>  <ref_pdb>  (890) 
Z3559a

>  <inspiration_score>  (890) 
None

$$$$
P125907
     RDKit          3D

 35 40  0  0  0  0  0  0  0  0999 V2000
  -10.6200    1.8405   -5.8243 C   0  0  0  0  0  0  0  0  0  0  0  0
   -9.2659    2.4407   -6.1392 C   0  0  0  0  0  0  0  0  0  0  0  0
   -9.3311    3.1722   -7.3871 N   0  0  0  0  0  0  0  0  0  0  0  0
   -8.3914    4.2918   -7.4403 C   0  0  0  0  0  0  0  0  0  0  0  0
   -8.1997    4.5080   -8.9002 C   0  0  0  0  0  0  0  0  0  0  0  0
   -7.7462    5.6336   -9.5484 C   0  0  0  0  0  0  0  0  0  0  0  0
   -7.6719    5.5904  -10.9375 C   0  0  0  0  0  0  0  0  0  0  0  0
   -8.0118    4.4274  -11.6566 C   0  0  0  0  0  0  0  0  0  0  0  0
   -7.8668    4.4244  -13.0459 N   0  0  0  0  0  0  0  0  0  0  0  0
   -7.4011    5.5392  -14.0083 C   0  0  0  0  0  0  0  0  0  0  0  0
   -7.1392    6.6583  -13.8004 O   0  0  0  0  0  0  0  0  0  0  0  0
   -7.1675    5.0601  -15.3828 C   0  0  0  0  0  0  0  0  0  0  0  0
   -8.1965    4.5357  -16.1746 C   0  0  0  0  0  0  0  0  0  0  0  0
   -7.9688    4.3374  -17.5415 C   0  0  0  0  0  0  0  0  0  0  0  0
   -8.9986    3.8762  -18.5375 C   0  0  0  0  0  0  0  0  0  0  0  0
  -10.4541    3.6909  -18.2695 C   0  0  0  0  0  0  0  0  0  0  0  0
   -9.5512    2.4899  -18.3948 C   0  0  0  0  0  0  0  0  0  0  0  0
   -6.7849    4.6060  -18.1198 N   0  0  0  0  0  0  0  0  0  0  0  0
   -5.8196    5.0995  -17.3339 C   0  0  0  0  0  0  0  0  0  0  0  0
   -5.9210    5.3266  -15.9757 C   0  0  0  0  0  0  0  0  0  0  0  0
   -4.6394    5.7999  -15.5999 C   0  0  0  0  0  0  0  0  0  0  0  0
   -4.1524    6.1861  -14.2506 C   0  0  0  0  0  0  0  0  0  0  0  0
   -3.7978    5.8555  -16.6396 N   0  0  0  0  0  0  0  0  0  0  0  0
   -4.5386    5.4640  -17.7155 N   0  0  0  0  0  0  0  0  0  0  0  0
   -3.9580    5.4453  -19.0192 C   0  0  0  0  0  0  0  0  0  0  0  0
   -4.7316    5.2893  -20.1755 C   0  0  0  0  0  0  0  0  0  0  0  0
   -4.1159    5.2224  -21.4305 C   0  0  0  0  0  0  0  0  0  0  0  0
   -2.7285    5.3095  -21.5536 C   0  0  0  0  0  0  0  0  0  0  0  0
   -2.2578    5.2099  -22.8339 O   0  0  0  0  0  0  0  0  0  0  0  0
   -0.8698    5.4625  -23.0190 C   0  0  0  0  0  0  0  0  0  0  0  0
   -1.9550    5.4749  -20.4060 C   0  0  0  0  0  0  0  0  0  0  0  0
   -2.5651    5.5565  -19.1476 C   0  0  0  0  0  0  0  0  0  0  0  0
   -8.4624    3.2874  -10.9803 C   0  0  0  0  0  0  0  0  0  0  0  0
   -8.5758    3.3562   -9.5978 C   0  0  0  0  0  0  0  0  0  0  0  0
   -9.0959    2.3530   -8.6050 C   0  0  0  0  0  0  0  0  0  0  0  0
  1  2  1  0
  2  3  1  0
  3  4  1  0
  4  5  1  0
  5  6  2  0
  6  7  1  0
  7  8  2  0
  8  9  1  0
  9 10  1  0
 10 11  2  0
 10 12  1  0
 12 13  2  0
 13 14  1  0
 14 15  1  0
 15 16  1  0
 16 17  1  0
 14 18  2  0
 18 19  1  0
 19 20  2  0
 20 21  1  0
 21 22  1  0
 21 23  2  0
 23 24  1  0
 24 25  1  0
 25 26  2  0
 26 27  1  0
 27 28  2  0
 28 29  1  0
 29 30  1  0
 28 31  1  0
 31 32  2  0
  8 33  1  0
 33 34  2  0
 34 35  1  0
 35  3  1  0
 34  5  1  0
 20 12  1  0
 32 25  1  0
 17 15  1  0
 24 19  1  0
M  END
>  <name>  (891) 
P125907

>  <alias>  (891) 
None

>  <smina_score_min>  (891) 
-9.729

>  <exports>  (891) 
['/opt/xchem-fragalysis-2/maxwin/BulkDock/OUTPUTS/openbind_xx01zvns2b_c2_elabs_1LOUTNY.sdf', '/opt/xchem-fragalysis-2/maxwin/BulkDock/OUTPUTS/openbind_xx01zvns2b_c2_elabs_1LSYIIV.sdf']

>  <tags>  (891) 
syndirella_placed,openbind_xx01zvns2b_c2_elabs,openbind_xx01zvns2b_c2_elabs_scored_6.2plus,syndirella_product,openbind_xx01zvns2b_c2_elabs_scored,openbind_xx01zvns2b_c2_elabs_scored_top80percent,BulkDock Fragalysis export

>  <subsites>  (891) 
1 - Z4590/B/203/1

>  <smiles>  (891) 
CCN1Cc2ccc(NC(=O)c3cc(C4CC4)nc4c3c(C)nn4-c3ccc(OC)cc3)cc2C1

>  <HIPPO Pose ID>  (891) 
125907

>  <energy_score>  (891) 
-53.456269

>  <inchikey>  (891) 
UKBVUFYBYWOFJY-UHFFFAOYSA-N

>  <gnina_score_min>  (891) 
6.781

>  <gnina_score>  (891) 
6.757

>  <ref_mols>  (891) 
Z3559a

>  <HIPPO Compound ID>  (891) 
188057

>  <distance_score>  (891) 
0.74624

>  <rmsd(smina/fragmenstein)>  (891) 
1.067

>  <ref_pdb>  (891) 
Z3559a

>  <inspiration_score>  (891) 
None

$$$$
P125908
     RDKit          3D

 35 40  0  0  0  0  0  0  0  0999 V2000
   -2.7866    4.4065  -23.5743 C   0  0  0  0  0  0  0  0  0  0  0  0
   -2.2123    5.1917  -22.5377 O   0  0  0  0  0  0  0  0  0  0  0  0
   -2.9495    5.3033  -21.3925 C   0  0  0  0  0  0  0  0  0  0  0  0
   -2.2425    5.8031  -20.3023 C   0  0  0  0  0  0  0  0  0  0  0  0
   -2.8571    5.9207  -19.0566 C   0  0  0  0  0  0  0  0  0  0  0  0
   -4.2002    5.5432  -18.8824 C   0  0  0  0  0  0  0  0  0  0  0  0
   -4.7612    5.6094  -17.5724 N   0  0  0  0  0  0  0  0  0  0  0  0
   -4.0101    6.1461  -16.5666 N   0  0  0  0  0  0  0  0  0  0  0  0
   -4.7823    6.0897  -15.4799 C   0  0  0  0  0  0  0  0  0  0  0  0
   -4.2448    6.5995  -14.1920 C   0  0  0  0  0  0  0  0  0  0  0  0
   -6.0410    5.5046  -15.7552 C   0  0  0  0  0  0  0  0  0  0  0  0
   -7.2210    5.1907  -15.0638 C   0  0  0  0  0  0  0  0  0  0  0  0
   -7.3836    5.6289  -13.6629 C   0  0  0  0  0  0  0  0  0  0  0  0
   -7.0798    6.7214  -13.3897 O   0  0  0  0  0  0  0  0  0  0  0  0
   -7.8939    4.4804  -12.7696 N   0  0  0  0  0  0  0  0  0  0  0  0
   -8.0424    4.4075  -11.3897 C   0  0  0  0  0  0  0  0  0  0  0  0
   -7.6496    5.4766  -10.5588 C   0  0  0  0  0  0  0  0  0  0  0  0
   -7.7862    5.4057   -9.1665 C   0  0  0  0  0  0  0  0  0  0  0  0
   -8.3571    4.2698   -8.6336 C   0  0  0  0  0  0  0  0  0  0  0  0
   -8.7678    3.2375   -9.4754 C   0  0  0  0  0  0  0  0  0  0  0  0
   -8.5970    3.2552  -10.8440 C   0  0  0  0  0  0  0  0  0  0  0  0
   -9.4661    2.2456   -8.6643 C   0  0  0  0  0  0  0  0  0  0  0  0
   -9.9521    1.2209   -9.0928 O   0  0  0  0  0  0  0  0  0  0  0  0
   -9.4869    2.7348   -7.3702 N   0  0  0  0  0  0  0  0  0  0  0  0
   -9.7826    1.8639   -6.2716 C   0  0  0  0  0  0  0  0  0  0  0  0
   -8.6698    3.9183   -7.2190 C   0  0  0  0  0  0  0  0  0  0  0  0
   -8.2326    4.5068  -15.7398 C   0  0  0  0  0  0  0  0  0  0  0  0
   -8.0509    4.1587  -17.0764 C   0  0  0  0  0  0  0  0  0  0  0  0
   -9.0659    3.2776  -17.7527 C   0  0  0  0  0  0  0  0  0  0  0  0
  -10.1937    3.8354  -18.5811 C   0  0  0  0  0  0  0  0  0  0  0  0
   -9.0554    3.1249  -19.2484 C   0  0  0  0  0  0  0  0  0  0  0  0
   -6.9542    4.5177  -17.7805 N   0  0  0  0  0  0  0  0  0  0  0  0
   -5.9925    5.1693  -17.1004 C   0  0  0  0  0  0  0  0  0  0  0  0
   -4.9258    5.0990  -19.9909 C   0  0  0  0  0  0  0  0  0  0  0  0
   -4.2982    4.9763  -21.2408 C   0  0  0  0  0  0  0  0  0  0  0  0
  1  2  1  0
  2  3  1  0
  3  4  2  0
  4  5  1  0
  5  6  2  0
  6  7  1  0
  7  8  1  0
  8  9  2  0
  9 10  1  0
  9 11  1  0
 11 12  2  0
 12 13  1  0
 13 14  2  0
 13 15  1  0
 15 16  1  0
 16 17  2  0
 17 18  1  0
 18 19  2  0
 19 20  1  0
 20 21  2  0
 20 22  1  0
 22 23  2  0
 22 24  1  0
 24 25  1  0
 24 26  1  0
 12 27  1  0
 27 28  2  0
 28 29  1  0
 29 30  1  0
 30 31  1  0
 28 32  1  0
 32 33  2  0
  6 34  1  0
 34 35  2  0
 35  3  1  0
 33  7  1  0
 33 11  1  0
 21 16  1  0
 31 29  1  0
 26 19  1  0
M  END
>  <name>  (892) 
P125908

>  <alias>  (892) 
None

>  <smina_score_min>  (892) 
-9.355

>  <exports>  (892) 
['/opt/xchem-fragalysis-2/maxwin/BulkDock/OUTPUTS/openbind_xx01zvns2b_c2_elabs_1LOUTNY.sdf', '/opt/xchem-fragalysis-2/maxwin/BulkDock/OUTPUTS/openbind_xx01zvns2b_c2_elabs_1LSYIIV.sdf']

>  <tags>  (892) 
syndirella_placed,openbind_xx01zvns2b_c2_elabs,openbind_xx01zvns2b_c2_elabs_scored_6.2plus,syndirella_product,openbind_xx01zvns2b_c2_elabs_scored,openbind_xx01zvns2b_c2_elabs_scored_top80percent,BulkDock Fragalysis export

>  <subsites>  (892) 
1 - Z4590/B/203/1

>  <smiles>  (892) 
COc1ccc(-n2nc(C)c3c(C(=O)Nc4ccc5c(c4)C(=O)N(C)C5)cc(C4CC4)nc32)cc1

>  <HIPPO Pose ID>  (892) 
125908

>  <energy_score>  (892) 
-60.0405

>  <inchikey>  (892) 
QQOOQRXRZXVSAC-UHFFFAOYSA-N

>  <gnina_score_min>  (892) 
6.546

>  <gnina_score>  (892) 
6.694

>  <ref_mols>  (892) 
Z3559a

>  <HIPPO Compound ID>  (892) 
188058

>  <distance_score>  (892) 
0.57648

>  <rmsd(smina/fragmenstein)>  (892) 
0.671

>  <ref_pdb>  (892) 
Z3559a

>  <inspiration_score>  (892) 
None

$$$$
P125909
     RDKit          3D

 35 40  0  0  0  0  0  0  0  0999 V2000
   -3.1508    5.7967  -23.7956 C   0  0  0  0  0  0  0  0  0  0  0  0
   -2.9441    4.6601  -22.9566 O   0  0  0  0  0  0  0  0  0  0  0  0
   -3.4297    4.9149  -21.7035 C   0  0  0  0  0  0  0  0  0  0  0  0
   -2.5418    5.2599  -20.6907 C   0  0  0  0  0  0  0  0  0  0  0  0
   -3.0229    5.4866  -19.3978 C   0  0  0  0  0  0  0  0  0  0  0  0
   -4.3900    5.3229  -19.1036 C   0  0  0  0  0  0  0  0  0  0  0  0
   -4.8347    5.4794  -17.7561 N   0  0  0  0  0  0  0  0  0  0  0  0
   -3.9904    6.0302  -16.8332 N   0  0  0  0  0  0  0  0  0  0  0  0
   -4.6835    6.0514  -15.6916 C   0  0  0  0  0  0  0  0  0  0  0  0
   -4.0633    6.6299  -14.4730 C   0  0  0  0  0  0  0  0  0  0  0  0
   -5.9660    5.4793  -15.8412 C   0  0  0  0  0  0  0  0  0  0  0  0
   -7.0822    5.2020  -15.0477 C   0  0  0  0  0  0  0  0  0  0  0  0
   -7.1378    5.6404  -13.6445 C   0  0  0  0  0  0  0  0  0  0  0  0
   -7.1012    6.7885  -13.3934 O   0  0  0  0  0  0  0  0  0  0  0  0
   -7.3366    4.4524  -12.7437 N   0  0  0  0  0  0  0  0  0  0  0  0
   -5.9575    3.9070  -12.2016 C   0  0  0  0  0  0  0  0  0  0  0  0
   -7.6406    4.3795  -11.3103 C   0  0  0  0  0  0  0  0  0  0  0  0
   -7.5720    5.5257  -10.4836 C   0  0  0  0  0  0  0  0  0  0  0  0
   -7.9207    5.4530   -9.1331 C   0  0  0  0  0  0  0  0  0  0  0  0
   -8.4075    4.2519   -8.6539 C   0  0  0  0  0  0  0  0  0  0  0  0
   -8.5855    3.1523   -9.4934 C   0  0  0  0  0  0  0  0  0  0  0  0
   -8.2350    3.2000  -10.8245 C   0  0  0  0  0  0  0  0  0  0  0  0
   -9.1639    2.0195   -8.7143 C   0  0  0  0  0  0  0  0  0  0  0  0
   -9.6571    2.6630   -7.4757 N   0  0  0  0  0  0  0  0  0  0  0  0
   -9.5912    1.7548   -6.3548 C   0  0  0  0  0  0  0  0  0  0  0  0
   -8.8325    3.8710   -7.2724 C   0  0  0  0  0  0  0  0  0  0  0  0
   -8.1895    4.5795  -15.6255 C   0  0  0  0  0  0  0  0  0  0  0  0
   -8.1872    4.2952  -16.9891 C   0  0  0  0  0  0  0  0  0  0  0  0
   -9.4471    3.7571  -17.6349 C   0  0  0  0  0  0  0  0  0  0  0  0
   -9.7460    4.0207  -19.0895 C   0  0  0  0  0  0  0  0  0  0  0  0
   -9.3697    2.6396  -18.6449 C   0  0  0  0  0  0  0  0  0  0  0  0
   -7.1185    4.5566  -17.7774 N   0  0  0  0  0  0  0  0  0  0  0  0
   -6.0534    5.1311  -17.1808 C   0  0  0  0  0  0  0  0  0  0  0  0
   -5.2671    4.9642  -20.1338 C   0  0  0  0  0  0  0  0  0  0  0  0
   -4.7855    4.7596  -21.4315 C   0  0  0  0  0  0  0  0  0  0  0  0
  1  2  1  0
  2  3  1  0
  3  4  2  0
  4  5  1  0
  5  6  2  0
  6  7  1  0
  7  8  1  0
  8  9  2  0
  9 10  1  0
  9 11  1  0
 11 12  2  0
 12 13  1  0
 13 14  2  0
 13 15  1  0
 15 16  1  0
 15 17  1  0
 17 18  2  0
 18 19  1  0
 19 20  2  0
 20 21  1  0
 21 22  2  0
 21 23  1  0
 23 24  1  0
 24 25  1  0
 24 26  1  0
 12 27  1  0
 27 28  2  0
 28 29  1  0
 29 30  1  0
 30 31  1  0
 28 32  1  0
 32 33  2  0
  6 34  1  0
 34 35  2  0
 35  3  1  0
 33  7  1  0
 33 11  1  0
 22 17  1  0
 31 29  1  0
 26 20  1  0
M  END
>  <name>  (893) 
P125909

>  <alias>  (893) 
None

>  <smina_score_min>  (893) 
-9.805

>  <exports>  (893) 
['/opt/xchem-fragalysis-2/maxwin/BulkDock/OUTPUTS/openbind_xx01zvns2b_c2_elabs_1LOUTNY.sdf', '/opt/xchem-fragalysis-2/maxwin/BulkDock/OUTPUTS/openbind_xx01zvns2b_c2_elabs_1LSYIIV.sdf']

>  <tags>  (893) 
syndirella_placed,openbind_xx01zvns2b_c2_elabs,openbind_xx01zvns2b_c2_elabs_scored_6.2plus,syndirella_product,openbind_xx01zvns2b_c2_elabs_scored,openbind_xx01zvns2b_c2_elabs_scored_top80percent,BulkDock Fragalysis export

>  <subsites>  (893) 
1 - Z4590/B/203/1

>  <smiles>  (893) 
COc1ccc(-n2nc(C)c3c(C(=O)N(C)c4ccc5c(c4)CN(C)C5)cc(C4CC4)nc32)cc1

>  <HIPPO Pose ID>  (893) 
125909

>  <energy_score>  (893) 
-1.546529

>  <inchikey>  (893) 
NGJOOPRPRGRRPW-UHFFFAOYSA-N

>  <gnina_score_min>  (893) 
6.707

>  <gnina_score>  (893) 
6.76

>  <ref_mols>  (893) 
Z3559a

>  <HIPPO Compound ID>  (893) 
188059

>  <distance_score>  (893) 
0.553246

>  <rmsd(smina/fragmenstein)>  (893) 
0.415

>  <ref_pdb>  (893) 
Z3559a

>  <inspiration_score>  (893) 
None

$$$$
P125912
     RDKit          3D

 35 40  0  0  0  0  0  0  0  0999 V2000
   -1.4703    5.3991  -22.9249 C   0  0  0  0  0  0  0  0  0  0  0  0
   -2.8341    5.0842  -22.6675 O   0  0  0  0  0  0  0  0  0  0  0  0
   -3.2562    5.2191  -21.3737 C   0  0  0  0  0  0  0  0  0  0  0  0
   -4.6295    5.0556  -21.1837 C   0  0  0  0  0  0  0  0  0  0  0  0
   -5.1958    5.1388  -19.9059 C   0  0  0  0  0  0  0  0  0  0  0  0
   -4.3861    5.3962  -18.7962 C   0  0  0  0  0  0  0  0  0  0  0  0
   -4.9131    5.4440  -17.4707 N   0  0  0  0  0  0  0  0  0  0  0  0
   -4.1434    5.9302  -16.4553 N   0  0  0  0  0  0  0  0  0  0  0  0
   -4.9261    5.8834  -15.3711 C   0  0  0  0  0  0  0  0  0  0  0  0
   -4.3881    6.3633  -14.0716 C   0  0  0  0  0  0  0  0  0  0  0  0
   -6.1993    5.3263  -15.6528 C   0  0  0  0  0  0  0  0  0  0  0  0
   -7.3921    5.0145  -14.9718 C   0  0  0  0  0  0  0  0  0  0  0  0
   -7.5650    5.4613  -13.5722 C   0  0  0  0  0  0  0  0  0  0  0  0
   -7.2820    6.5690  -13.3344 O   0  0  0  0  0  0  0  0  0  0  0  0
   -8.0286    4.3200  -12.6335 N   0  0  0  0  0  0  0  0  0  0  0  0
   -8.1453    4.2804  -11.2330 C   0  0  0  0  0  0  0  0  0  0  0  0
   -8.6678    3.1194  -10.6467 C   0  0  0  0  0  0  0  0  0  0  0  0
   -8.7917    3.0892   -9.2636 C   0  0  0  0  0  0  0  0  0  0  0  0
   -8.3791    4.1364   -8.4413 C   0  0  0  0  0  0  0  0  0  0  0  0
   -7.8542    5.2814   -9.0003 C   0  0  0  0  0  0  0  0  0  0  0  0
   -7.7500    5.3482  -10.3942 C   0  0  0  0  0  0  0  0  0  0  0  0
   -7.2126    6.4686  -10.8910 F   0  0  0  0  0  0  0  0  0  0  0  0
   -8.6191    3.7949   -7.0105 C   0  0  0  0  0  0  0  0  0  0  0  0
   -9.2626    2.5149   -7.0970 N   0  0  0  0  0  0  0  0  0  0  0  0
   -9.3858    2.0654   -8.3941 C   0  0  0  0  0  0  0  0  0  0  0  0
   -9.9327    1.0468   -8.7552 O   0  0  0  0  0  0  0  0  0  0  0  0
   -8.4204    4.3796  -15.6761 C   0  0  0  0  0  0  0  0  0  0  0  0
   -8.2454    4.0873  -17.0276 C   0  0  0  0  0  0  0  0  0  0  0  0
   -9.2956    3.3568  -17.8246 C   0  0  0  0  0  0  0  0  0  0  0  0
  -10.6019    3.9830  -18.2460 C   0  0  0  0  0  0  0  0  0  0  0  0
   -9.5123    3.8103  -19.2483 C   0  0  0  0  0  0  0  0  0  0  0  0
   -7.1242    4.4157  -17.7041 N   0  0  0  0  0  0  0  0  0  0  0  0
   -6.1533    5.0264  -17.0042 C   0  0  0  0  0  0  0  0  0  0  0  0
   -3.0089    5.5891  -18.9924 C   0  0  0  0  0  0  0  0  0  0  0  0
   -2.4465    5.4852  -20.2711 C   0  0  0  0  0  0  0  0  0  0  0  0
  1  2  1  0
  2  3  1  0
  3  4  2  0
  4  5  1  0
  5  6  2  0
  6  7  1  0
  7  8  1  0
  8  9  2  0
  9 10  1  0
  9 11  1  0
 11 12  2  0
 12 13  1  0
 13 14  2  0
 13 15  1  0
 15 16  1  0
 16 17  2  0
 17 18  1  0
 18 19  2  0
 19 20  1  0
 20 21  2  0
 21 22  1  0
 19 23  1  0
 23 24  1  0
 24 25  1  0
 25 26  2  0
 12 27  1  0
 27 28  2  0
 28 29  1  0
 29 30  1  0
 30 31  1  0
 28 32  1  0
 32 33  2  0
  6 34  1  0
 34 35  2  0
 35  3  1  0
 33  7  1  0
 33 11  1  0
 21 16  1  0
 31 29  1  0
 25 18  1  0
M  END
>  <name>  (894) 
P125912

>  <alias>  (894) 
None

>  <smina_score_min>  (894) 
-10.102

>  <exports>  (894) 
['/opt/xchem-fragalysis-2/maxwin/BulkDock/OUTPUTS/openbind_xx01zvns2b_c2_elabs_1LOUTNY.sdf', '/opt/xchem-fragalysis-2/maxwin/BulkDock/OUTPUTS/openbind_xx01zvns2b_c2_elabs_1LSYIIV.sdf']

>  <tags>  (894) 
syndirella_placed,openbind_xx01zvns2b_c2_elabs,openbind_xx01zvns2b_c2_elabs_scored_6.2plus,syndirella_product,openbind_xx01zvns2b_c2_elabs_scored,openbind_xx01zvns2b_c2_elabs_scored_top80percent,BulkDock Fragalysis export

>  <subsites>  (894) 
1 - Z4590/B/203/1

>  <smiles>  (894) 
COc1ccc(-n2nc(C)c3c(C(=O)Nc4cc5c(cc4F)CNC5=O)cc(C4CC4)nc32)cc1

>  <HIPPO Pose ID>  (894) 
125912

>  <energy_score>  (894) 
-30.887569

>  <inchikey>  (894) 
VBLAWIUPRQHRSM-UHFFFAOYSA-N

>  <gnina_score_min>  (894) 
6.878

>  <gnina_score>  (894) 
6.876

>  <ref_mols>  (894) 
Z3559a

>  <HIPPO Compound ID>  (894) 
188064

>  <distance_score>  (894) 
0.538152

>  <rmsd(smina/fragmenstein)>  (894) 
0.69

>  <ref_pdb>  (894) 
Z3559a

>  <inspiration_score>  (894) 
None

$$$$
P125915
     RDKit          3D

 35 40  0  0  0  0  0  0  0  0999 V2000
   -3.0709    4.4815  -23.3997 C   0  0  0  0  0  0  0  0  0  0  0  0
   -2.4829    5.2506  -22.3588 O   0  0  0  0  0  0  0  0  0  0  0  0
   -3.1980    5.3197  -21.1963 C   0  0  0  0  0  0  0  0  0  0  0  0
   -4.5536    5.0238  -21.0422 C   0  0  0  0  0  0  0  0  0  0  0  0
   -5.1598    5.0909  -19.7778 C   0  0  0  0  0  0  0  0  0  0  0  0
   -4.4067    5.4539  -18.6588 C   0  0  0  0  0  0  0  0  0  0  0  0
   -4.9455    5.4582  -17.3371 N   0  0  0  0  0  0  0  0  0  0  0  0
   -4.1495    5.8836  -16.3126 N   0  0  0  0  0  0  0  0  0  0  0  0
   -4.8982    5.7730  -15.2138 C   0  0  0  0  0  0  0  0  0  0  0  0
   -4.3029    6.1407  -13.9030 C   0  0  0  0  0  0  0  0  0  0  0  0
   -6.1949    5.2801  -15.5003 C   0  0  0  0  0  0  0  0  0  0  0  0
   -7.3776    4.9814  -14.7996 C   0  0  0  0  0  0  0  0  0  0  0  0
   -7.5028    5.3725  -13.3758 C   0  0  0  0  0  0  0  0  0  0  0  0
   -7.1171    6.4378  -13.0908 O   0  0  0  0  0  0  0  0  0  0  0  0
   -8.0683    4.2391  -12.4861 N   0  0  0  0  0  0  0  0  0  0  0  0
   -8.1844    4.1485  -11.0958 C   0  0  0  0  0  0  0  0  0  0  0  0
   -7.7269    5.2117  -10.2841 C   0  0  0  0  0  0  0  0  0  0  0  0
   -7.7564    5.1298   -8.8876 C   0  0  0  0  0  0  0  0  0  0  0  0
   -8.2764    3.9793   -8.3368 C   0  0  0  0  0  0  0  0  0  0  0  0
   -8.7733    2.9544   -9.1226 C   0  0  0  0  0  0  0  0  0  0  0  0
   -8.7240    2.9982  -10.5085 C   0  0  0  0  0  0  0  0  0  0  0  0
   -9.3227    1.9519   -8.2069 C   0  0  0  0  0  0  0  0  0  0  0  0
   -9.9623    0.9759   -8.5369 O   0  0  0  0  0  0  0  0  0  0  0  0
   -9.0503    2.3804   -6.9419 N   0  0  0  0  0  0  0  0  0  0  0  0
   -8.4162    3.5822   -6.9345 C   0  0  0  0  0  0  0  0  0  0  0  0
   -8.0089    4.2232   -5.9828 O   0  0  0  0  0  0  0  0  0  0  0  0
   -8.4541    4.4548  -15.5137 C   0  0  0  0  0  0  0  0  0  0  0  0
   -8.3529    4.2712  -16.8953 C   0  0  0  0  0  0  0  0  0  0  0  0
   -9.5655    3.8027  -17.6747 C   0  0  0  0  0  0  0  0  0  0  0  0
   -9.6566    4.0008  -19.1669 C   0  0  0  0  0  0  0  0  0  0  0  0
   -9.4495    2.6254  -18.6102 C   0  0  0  0  0  0  0  0  0  0  0  0
   -7.2279    4.5714  -17.5856 N   0  0  0  0  0  0  0  0  0  0  0  0
   -6.1968    5.0633  -16.8719 C   0  0  0  0  0  0  0  0  0  0  0  0
   -3.0550    5.8018  -18.8328 C   0  0  0  0  0  0  0  0  0  0  0  0
   -2.4611    5.7372  -20.0921 C   0  0  0  0  0  0  0  0  0  0  0  0
  1  2  1  0
  2  3  1  0
  3  4  2  0
  4  5  1  0
  5  6  2  0
  6  7  1  0
  7  8  1  0
  8  9  2  0
  9 10  1  0
  9 11  1  0
 11 12  2  0
 12 13  1  0
 13 14  2  0
 13 15  1  0
 15 16  1  0
 16 17  2  0
 17 18  1  0
 18 19  2  0
 19 20  1  0
 20 21  2  0
 20 22  1  0
 22 23  2  0
 22 24  1  0
 24 25  1  0
 25 26  2  0
 12 27  1  0
 27 28  2  0
 28 29  1  0
 29 30  1  0
 30 31  1  0
 28 32  1  0
 32 33  2  0
  6 34  1  0
 34 35  2  0
 35  3  1  0
 33  7  1  0
 33 11  1  0
 21 16  1  0
 31 29  1  0
 25 19  1  0
M  END
>  <name>  (895) 
P125915

>  <alias>  (895) 
None

>  <smina_score_min>  (895) 
-10.145

>  <exports>  (895) 
['/opt/xchem-fragalysis-2/maxwin/BulkDock/OUTPUTS/openbind_xx01zvns2b_c2_elabs_1LOUTNY.sdf', '/opt/xchem-fragalysis-2/maxwin/BulkDock/OUTPUTS/openbind_xx01zvns2b_c2_elabs_1LSYIIV.sdf']

>  <tags>  (895) 
syndirella_placed,openbind_xx01zvns2b_c2_elabs,openbind_xx01zvns2b_c2_elabs_scored_6.2plus,syndirella_product,openbind_xx01zvns2b_c2_elabs_scored,openbind_xx01zvns2b_c2_elabs_scored_top80percent,BulkDock Fragalysis export

>  <subsites>  (895) 
1 - Z4590/B/203/1

>  <smiles>  (895) 
COc1ccc(-n2nc(C)c3c(C(=O)Nc4ccc5c(c4)C(=O)NC5=O)cc(C4CC4)nc32)cc1

>  <HIPPO Pose ID>  (895) 
125915

>  <energy_score>  (895) 
-61.700686

>  <inchikey>  (895) 
MDKRGXLHKSSXLA-UHFFFAOYSA-N

>  <gnina_score_min>  (895) 
6.558

>  <gnina_score>  (895) 
6.677

>  <ref_mols>  (895) 
Z3559a

>  <HIPPO Compound ID>  (895) 
188073

>  <distance_score>  (895) 
0.410289

>  <rmsd(smina/fragmenstein)>  (895) 
0.87

>  <ref_pdb>  (895) 
Z3559a

>  <inspiration_score>  (895) 
None

$$$$
P125916
     RDKit          3D

 35 40  0  0  0  0  0  0  0  0999 V2000
   -3.5198    6.0708  -23.7723 C   0  0  0  0  0  0  0  0  0  0  0  0
   -2.9241    5.1126  -22.8983 O   0  0  0  0  0  0  0  0  0  0  0  0
   -3.4447    5.1960  -21.6360 C   0  0  0  0  0  0  0  0  0  0  0  0
   -4.7949    4.9801  -21.3734 C   0  0  0  0  0  0  0  0  0  0  0  0
   -5.2787    5.0530  -20.0619 C   0  0  0  0  0  0  0  0  0  0  0  0
   -4.4103    5.3385  -19.0038 C   0  0  0  0  0  0  0  0  0  0  0  0
   -4.8629    5.3981  -17.6510 N   0  0  0  0  0  0  0  0  0  0  0  0
   -4.0092    5.8455  -16.6833 N   0  0  0  0  0  0  0  0  0  0  0  0
   -4.7152    5.8147  -15.5496 C   0  0  0  0  0  0  0  0  0  0  0  0
   -4.0703    6.2477  -14.2835 C   0  0  0  0  0  0  0  0  0  0  0  0
   -6.0269    5.3254  -15.7539 C   0  0  0  0  0  0  0  0  0  0  0  0
   -7.1763    5.0649  -14.9949 C   0  0  0  0  0  0  0  0  0  0  0  0
   -7.2483    5.4850  -13.5821 C   0  0  0  0  0  0  0  0  0  0  0  0
   -6.9236    6.5742  -13.3175 O   0  0  0  0  0  0  0  0  0  0  0  0
   -7.7936    4.3560  -12.6806 N   0  0  0  0  0  0  0  0  0  0  0  0
   -7.9584    4.3018  -11.2988 C   0  0  0  0  0  0  0  0  0  0  0  0
   -7.7075    5.4371  -10.5037 C   0  0  0  0  0  0  0  0  0  0  0  0
   -7.9106    5.4050   -9.1232 C   0  0  0  0  0  0  0  0  0  0  0  0
   -8.3657    4.2224   -8.5794 C   0  0  0  0  0  0  0  0  0  0  0  0
   -8.6157    3.0881   -9.3489 C   0  0  0  0  0  0  0  0  0  0  0  0
   -8.4074    3.1090  -10.7184 C   0  0  0  0  0  0  0  0  0  0  0  0
   -9.1588    2.0020   -8.4822 C   0  0  0  0  0  0  0  0  0  0  0  0
   -9.2433    2.6506   -7.1843 N   0  0  0  0  0  0  0  0  0  0  0  0
   -9.9992    2.0770   -6.1023 C   0  0  0  0  0  0  0  0  0  0  0  0
   -8.7792    3.9491   -7.1985 C   0  0  0  0  0  0  0  0  0  0  0  0
   -8.7645    4.7701   -6.2994 O   0  0  0  0  0  0  0  0  0  0  0  0
   -8.2945    4.5217  -15.6311 C   0  0  0  0  0  0  0  0  0  0  0  0
   -8.2624    4.2789  -17.0027 C   0  0  0  0  0  0  0  0  0  0  0  0
   -9.5143    3.7850  -17.6965 C   0  0  0  0  0  0  0  0  0  0  0  0
   -9.4364    2.6180  -18.6483 C   0  0  0  0  0  0  0  0  0  0  0  0
   -9.7173    3.9928  -19.1749 C   0  0  0  0  0  0  0  0  0  0  0  0
   -7.1681    4.5377  -17.7530 N   0  0  0  0  0  0  0  0  0  0  0  0
   -6.0987    5.0503  -17.1114 C   0  0  0  0  0  0  0  0  0  0  0  0
   -3.0457    5.5421  -19.2811 C   0  0  0  0  0  0  0  0  0  0  0  0
   -2.5636    5.4486  -20.5902 C   0  0  0  0  0  0  0  0  0  0  0  0
  1  2  1  0
  2  3  1  0
  3  4  2  0
  4  5  1  0
  5  6  2  0
  6  7  1  0
  7  8  1  0
  8  9  2  0
  9 10  1  0
  9 11  1  0
 11 12  2  0
 12 13  1  0
 13 14  2  0
 13 15  1  0
 15 16  1  0
 16 17  2  0
 17 18  1  0
 18 19  2  0
 19 20  1  0
 20 21  2  0
 20 22  1  0
 22 23  1  0
 23 24  1  0
 23 25  1  0
 25 26  2  0
 12 27  1  0
 27 28  2  0
 28 29  1  0
 29 30  1  0
 30 31  1  0
 28 32  1  0
 32 33  2  0
  6 34  1  0
 34 35  2  0
 35  3  1  0
 33  7  1  0
 33 11  1  0
 21 16  1  0
 31 29  1  0
 25 19  1  0
M  END
>  <name>  (896) 
P125916

>  <alias>  (896) 
None

>  <smina_score_min>  (896) 
-10.035

>  <exports>  (896) 
['/opt/xchem-fragalysis-2/maxwin/BulkDock/OUTPUTS/openbind_xx01zvns2b_c2_elabs_1LOUTNY.sdf', '/opt/xchem-fragalysis-2/maxwin/BulkDock/OUTPUTS/openbind_xx01zvns2b_c2_elabs_1LSYIIV.sdf']

>  <tags>  (896) 
syndirella_placed,openbind_xx01zvns2b_c2_elabs,openbind_xx01zvns2b_c2_elabs_scored_6.2plus,syndirella_product,openbind_xx01zvns2b_c2_elabs_scored,openbind_xx01zvns2b_c2_elabs_scored_top80percent,BulkDock Fragalysis export

>  <subsites>  (896) 
1 - Z4590/B/203/1

>  <smiles>  (896) 
COc1ccc(-n2nc(C)c3c(C(=O)Nc4ccc5c(c4)CN(C)C5=O)cc(C4CC4)nc32)cc1

>  <HIPPO Pose ID>  (896) 
125916

>  <energy_score>  (896) 
-35.134855

>  <inchikey>  (896) 
DQBMTLJZTUIHHS-UHFFFAOYSA-N

>  <gnina_score_min>  (896) 
6.656

>  <gnina_score>  (896) 
6.696

>  <ref_mols>  (896) 
Z3559a

>  <HIPPO Compound ID>  (896) 
188074

>  <distance_score>  (896) 
0.398391

>  <rmsd(smina/fragmenstein)>  (896) 
1.009

>  <ref_pdb>  (896) 
Z3559a

>  <inspiration_score>  (896) 
None

$$$$
P125917
     RDKit          3D

 35 41  0  0  0  0  0  0  0  0999 V2000
   -9.6202    1.9209   -6.3785 C   0  0  0  0  0  0  0  0  0  0  0  0
   -9.3852    2.7707   -7.5100 N   0  0  0  0  0  0  0  0  0  0  0  0
   -8.5861    3.9715   -7.4156 C   0  0  0  0  0  0  0  0  0  0  0  0
   -8.3191    4.2909   -8.8472 C   0  0  0  0  0  0  0  0  0  0  0  0
   -7.7547    5.4101   -9.4199 C   0  0  0  0  0  0  0  0  0  0  0  0
   -7.6381    5.4430  -10.8164 C   0  0  0  0  0  0  0  0  0  0  0  0
   -8.0466    4.3562  -11.6191 C   0  0  0  0  0  0  0  0  0  0  0  0
   -7.8776    4.3954  -13.0023 N   0  0  0  0  0  0  0  0  0  0  0  0
   -7.4355    5.5496  -13.9257 C   0  0  0  0  0  0  0  0  0  0  0  0
   -7.2173    6.6707  -13.6842 O   0  0  0  0  0  0  0  0  0  0  0  0
   -7.1945    5.0978  -15.3105 C   0  0  0  0  0  0  0  0  0  0  0  0
   -8.2192    4.5834  -16.1180 C   0  0  0  0  0  0  0  0  0  0  0  0
   -7.9784    4.3843  -17.4823 C   0  0  0  0  0  0  0  0  0  0  0  0
   -9.0043    3.9545  -18.4971 C   0  0  0  0  0  0  0  0  0  0  0  0
   -9.5154    2.5469  -18.4347 C   0  0  0  0  0  0  0  0  0  0  0  0
  -10.4528    3.7034  -18.2405 C   0  0  0  0  0  0  0  0  0  0  0  0
   -6.7845    4.6434  -18.0425 N   0  0  0  0  0  0  0  0  0  0  0  0
   -5.8223    5.1215  -17.2447 C   0  0  0  0  0  0  0  0  0  0  0  0
   -5.9390    5.3493  -15.8867 C   0  0  0  0  0  0  0  0  0  0  0  0
   -4.6589    5.8003  -15.5118 C   0  0  0  0  0  0  0  0  0  0  0  0
   -4.2276    6.1954  -14.0708 C   0  0  0  0  0  0  0  0  0  0  0  0
   -4.2203    5.1643  -12.9713 C   0  0  0  0  0  0  0  0  0  0  0  0
   -2.9224    5.6648  -13.5299 C   0  0  0  0  0  0  0  0  0  0  0  0
   -3.7985    5.8573  -16.5305 N   0  0  0  0  0  0  0  0  0  0  0  0
   -4.5318    5.4714  -17.6147 N   0  0  0  0  0  0  0  0  0  0  0  0
   -3.9367    5.4473  -18.9129 C   0  0  0  0  0  0  0  0  0  0  0  0
   -2.5423    5.5737  -19.0251 C   0  0  0  0  0  0  0  0  0  0  0  0
   -1.9224    5.4894  -20.2744 C   0  0  0  0  0  0  0  0  0  0  0  0
   -2.6862    5.3026  -21.4241 C   0  0  0  0  0  0  0  0  0  0  0  0
   -4.0717    5.2027  -21.3267 C   0  0  0  0  0  0  0  0  0  0  0  0
   -4.6975    5.2737  -20.0779 C   0  0  0  0  0  0  0  0  0  0  0  0
   -8.6049    3.2258  -11.0306 C   0  0  0  0  0  0  0  0  0  0  0  0
   -8.7538    3.2420   -9.6555 C   0  0  0  0  0  0  0  0  0  0  0  0
   -9.4284    2.2684   -8.7989 C   0  0  0  0  0  0  0  0  0  0  0  0
   -9.9514    1.2479   -9.1925 O   0  0  0  0  0  0  0  0  0  0  0  0
  1  2  1  0
  2  3  1  0
  3  4  1  0
  4  5  2  0
  5  6  1  0
  6  7  2  0
  7  8  1  0
  8  9  1  0
  9 10  2  0
  9 11  1  0
 11 12  2  0
 12 13  1  0
 13 14  1  0
 14 15  1  0
 15 16  1  0
 13 17  2  0
 17 18  1  0
 18 19  2  0
 19 20  1  0
 20 21  1  0
 21 22  1  0
 22 23  1  0
 20 24  2  0
 24 25  1  0
 25 26  1  0
 26 27  2  0
 27 28  1  0
 28 29  2  0
 29 30  1  0
 30 31  2  0
  7 32  1  0
 32 33  2  0
 33 34  1  0
 34 35  2  0
 34  2  1  0
 33  4  1  0
 19 11  1  0
 23 21  1  0
 31 26  1  0
 16 14  1  0
 25 18  1  0
M  END
>  <name>  (897) 
P125917

>  <alias>  (897) 
None

>  <smina_score_min>  (897) 
-9.464

>  <exports>  (897) 
['/opt/xchem-fragalysis-2/maxwin/BulkDock/OUTPUTS/openbind_xx01zvns2b_c2_elabs_1LOUTNY.sdf', '/opt/xchem-fragalysis-2/maxwin/BulkDock/OUTPUTS/openbind_xx01zvns2b_c2_elabs_1LSYIIV.sdf']

>  <tags>  (897) 
syndirella_placed,openbind_xx01zvns2b_c2_elabs,openbind_xx01zvns2b_c2_elabs_scored_6.2plus,syndirella_product,openbind_xx01zvns2b_c2_elabs_scored,openbind_xx01zvns2b_c2_elabs_scored_top80percent,BulkDock Fragalysis export

>  <subsites>  (897) 
1 - Z4590/B/203/1

>  <smiles>  (897) 
CN1Cc2ccc(NC(=O)c3cc(C4CC4)nc4c3c(C3CC3)nn4-c3ccccc3)cc2C1=O

>  <HIPPO Pose ID>  (897) 
125917

>  <energy_score>  (897) 
-29.193608

>  <inchikey>  (897) 
FEGYREVBHGFSDN-UHFFFAOYSA-N

>  <gnina_score_min>  (897) 
6.692

>  <gnina_score>  (897) 
6.904

>  <ref_mols>  (897) 
Z3559a

>  <HIPPO Compound ID>  (897) 
188075

>  <distance_score>  (897) 
0.791196

>  <rmsd(smina/fragmenstein)>  (897) 
0.868

>  <ref_pdb>  (897) 
Z3559a

>  <inspiration_score>  (897) 
None

$$$$
P125918
     RDKit          3D

 35 41  0  0  0  0  0  0  0  0999 V2000
  -10.6831    1.8430   -5.7261 C   0  0  0  0  0  0  0  0  0  0  0  0
   -9.3640    2.5442   -5.9633 C   0  0  0  0  0  0  0  0  0  0  0  0
   -9.4062    3.2797   -7.2090 N   0  0  0  0  0  0  0  0  0  0  0  0
   -8.4473    4.3861   -7.2232 C   0  0  0  0  0  0  0  0  0  0  0  0
   -8.1849    4.5937   -8.6710 C   0  0  0  0  0  0  0  0  0  0  0  0
   -7.6654    5.7042   -9.2956 C   0  0  0  0  0  0  0  0  0  0  0  0
   -7.5058    5.6460  -10.6739 C   0  0  0  0  0  0  0  0  0  0  0  0
   -7.8366    4.4840  -11.3941 C   0  0  0  0  0  0  0  0  0  0  0  0
   -7.6141    4.4528  -12.7645 N   0  0  0  0  0  0  0  0  0  0  0  0
   -7.2635    5.5878  -13.7488 C   0  0  0  0  0  0  0  0  0  0  0  0
   -7.0309    6.7144  -13.5527 O   0  0  0  0  0  0  0  0  0  0  0  0
   -7.1842    5.0997  -15.1291 C   0  0  0  0  0  0  0  0  0  0  0  0
   -8.2992    4.5345  -15.7412 C   0  0  0  0  0  0  0  0  0  0  0  0
   -8.2622    4.2583  -17.1048 C   0  0  0  0  0  0  0  0  0  0  0  0
   -9.5201    3.7604  -17.7805 C   0  0  0  0  0  0  0  0  0  0  0  0
   -9.4623    2.5583  -18.6863 C   0  0  0  0  0  0  0  0  0  0  0  0
   -9.7158    3.9187  -19.2644 C   0  0  0  0  0  0  0  0  0  0  0  0
   -7.1655    4.4957  -17.8639 N   0  0  0  0  0  0  0  0  0  0  0  0
   -6.0964    5.0283  -17.2349 C   0  0  0  0  0  0  0  0  0  0  0  0
   -6.0313    5.3353  -15.8845 C   0  0  0  0  0  0  0  0  0  0  0  0
   -4.7285    5.8273  -15.6958 C   0  0  0  0  0  0  0  0  0  0  0  0
   -4.1283    6.3074  -14.3443 C   0  0  0  0  0  0  0  0  0  0  0  0
   -3.9678    5.3396  -13.1998 C   0  0  0  0  0  0  0  0  0  0  0  0
   -2.7575    5.8222  -13.9411 C   0  0  0  0  0  0  0  0  0  0  0  0
   -4.0113    5.8517  -16.8165 N   0  0  0  0  0  0  0  0  0  0  0  0
   -4.8591    5.3774  -17.7780 N   0  0  0  0  0  0  0  0  0  0  0  0
   -4.3969    5.2884  -19.1254 C   0  0  0  0  0  0  0  0  0  0  0  0
   -3.0335    5.5049  -19.3979 C   0  0  0  0  0  0  0  0  0  0  0  0
   -2.5338    5.3561  -20.6943 C   0  0  0  0  0  0  0  0  0  0  0  0
   -3.3915    5.0140  -21.7356 C   0  0  0  0  0  0  0  0  0  0  0  0
   -4.7472    4.8221  -21.4797 C   0  0  0  0  0  0  0  0  0  0  0  0
   -5.2505    4.9546  -20.1807 C   0  0  0  0  0  0  0  0  0  0  0  0
   -8.3581    3.3602  -10.7463 C   0  0  0  0  0  0  0  0  0  0  0  0
   -8.5482    3.4441   -9.3788 C   0  0  0  0  0  0  0  0  0  0  0  0
   -9.1296    2.4530   -8.4142 C   0  0  0  0  0  0  0  0  0  0  0  0
  1  2  1  0
  2  3  1  0
  3  4  1  0
  4  5  1  0
  5  6  2  0
  6  7  1  0
  7  8  2  0
  8  9  1  0
  9 10  1  0
 10 11  2  0
 10 12  1  0
 12 13  2  0
 13 14  1  0
 14 15  1  0
 15 16  1  0
 16 17  1  0
 14 18  2  0
 18 19  1  0
 19 20  2  0
 20 21  1  0
 21 22  1  0
 22 23  1  0
 23 24  1  0
 21 25  2  0
 25 26  1  0
 26 27  1  0
 27 28  2  0
 28 29  1  0
 29 30  2  0
 30 31  1  0
 31 32  2  0
  8 33  1  0
 33 34  2  0
 34 35  1  0
 35  3  1  0
 34  5  1  0
 20 12  1  0
 24 22  1  0
 32 27  1  0
 17 15  1  0
 26 19  1  0
M  END
>  <name>  (898) 
P125918

>  <alias>  (898) 
None

>  <smina_score_min>  (898) 
-9.233

>  <exports>  (898) 
['/opt/xchem-fragalysis-2/maxwin/BulkDock/OUTPUTS/openbind_xx01zvns2b_c2_elabs_1LOUTNY.sdf', '/opt/xchem-fragalysis-2/maxwin/BulkDock/OUTPUTS/openbind_xx01zvns2b_c2_elabs_1LSYIIV.sdf']

>  <tags>  (898) 
syndirella_placed,openbind_xx01zvns2b_c2_elabs,openbind_xx01zvns2b_c2_elabs_scored_6.2plus,syndirella_product,openbind_xx01zvns2b_c2_elabs_scored,openbind_xx01zvns2b_c2_elabs_scored_top80percent,BulkDock Fragalysis export

>  <subsites>  (898) 
1 - Z4590/B/203/1

>  <smiles>  (898) 
CCN1Cc2ccc(NC(=O)c3cc(C4CC4)nc4c3c(C3CC3)nn4-c3ccccc3)cc2C1

>  <HIPPO Pose ID>  (898) 
125918

>  <energy_score>  (898) 
-57.412606

>  <inchikey>  (898) 
PPWILXTXDINKIL-UHFFFAOYSA-N

>  <gnina_score_min>  (898) 
6.831

>  <gnina_score>  (898) 
6.853

>  <ref_mols>  (898) 
Z3559a

>  <HIPPO Compound ID>  (898) 
188076

>  <distance_score>  (898) 
0.598158

>  <rmsd(smina/fragmenstein)>  (898) 
0.888

>  <ref_pdb>  (898) 
Z3559a

>  <inspiration_score>  (898) 
None

$$$$
P125921
     RDKit          3D

 35 40  0  0  0  0  0  0  0  0999 V2000
   -2.7207    5.5783  -13.9698 C   0  0  0  0  0  0  0  0  0  0  0  0
   -4.1328    6.1599  -14.1117 C   0  0  0  0  0  0  0  0  0  0  0  0
   -4.0893    7.6826  -13.9619 C   0  0  0  0  0  0  0  0  0  0  0  0
   -4.7938    5.7595  -15.4066 C   0  0  0  0  0  0  0  0  0  0  0  0
   -4.0916    5.8364  -16.5436 N   0  0  0  0  0  0  0  0  0  0  0  0
   -4.9318    5.3976  -17.5220 N   0  0  0  0  0  0  0  0  0  0  0  0
   -4.4622    5.3520  -18.8719 C   0  0  0  0  0  0  0  0  0  0  0  0
   -3.0956    5.5812  -19.1298 C   0  0  0  0  0  0  0  0  0  0  0  0
   -2.5909    5.4859  -20.4300 C   0  0  0  0  0  0  0  0  0  0  0  0
   -3.4507    5.1843  -21.4769 C   0  0  0  0  0  0  0  0  0  0  0  0
   -2.9701    5.0874  -22.7235 F   0  0  0  0  0  0  0  0  0  0  0  0
   -4.8036    4.9755  -21.2458 C   0  0  0  0  0  0  0  0  0  0  0  0
   -5.3124    5.0560  -19.9444 C   0  0  0  0  0  0  0  0  0  0  0  0
   -6.1678    5.0357  -16.9978 C   0  0  0  0  0  0  0  0  0  0  0  0
   -7.2258    4.5398  -17.6673 N   0  0  0  0  0  0  0  0  0  0  0  0
   -8.3315    4.2643  -16.9436 C   0  0  0  0  0  0  0  0  0  0  0  0
   -9.5671    3.7904  -17.6787 C   0  0  0  0  0  0  0  0  0  0  0  0
   -9.7179    3.9976  -19.1643 C   0  0  0  0  0  0  0  0  0  0  0  0
   -9.4723    2.6207  -18.6263 C   0  0  0  0  0  0  0  0  0  0  0  0
   -8.3869    4.4752  -15.5672 C   0  0  0  0  0  0  0  0  0  0  0  0
   -7.2795    4.9993  -14.8953 C   0  0  0  0  0  0  0  0  0  0  0  0
   -7.3935    5.4069  -13.4786 C   0  0  0  0  0  0  0  0  0  0  0  0
   -7.0928    6.5045  -13.2149 O   0  0  0  0  0  0  0  0  0  0  0  0
   -7.9170    4.2651  -12.5737 N   0  0  0  0  0  0  0  0  0  0  0  0
   -8.0833    4.2098  -11.1888 C   0  0  0  0  0  0  0  0  0  0  0  0
   -7.6764    5.2918  -10.3816 C   0  0  0  0  0  0  0  0  0  0  0  0
   -7.8034    5.2534   -8.9873 C   0  0  0  0  0  0  0  0  0  0  0  0
   -8.3575    4.1254   -8.4175 C   0  0  0  0  0  0  0  0  0  0  0  0
   -8.7837    3.0707   -9.2250 C   0  0  0  0  0  0  0  0  0  0  0  0
   -8.6466    3.0737  -10.6041 C   0  0  0  0  0  0  0  0  0  0  0  0
   -9.3926    2.0658   -8.3440 C   0  0  0  0  0  0  0  0  0  0  0  0
   -9.9400    1.0411   -8.6888 O   0  0  0  0  0  0  0  0  0  0  0  0
   -9.2767    2.5360   -7.0529 N   0  0  0  0  0  0  0  0  0  0  0  0
   -8.6130    3.8073   -6.9836 C   0  0  0  0  0  0  0  0  0  0  0  0
   -6.1118    5.2767  -15.6310 C   0  0  0  0  0  0  0  0  0  0  0  0
  1  2  1  0
  2  3  1  0
  2  4  1  0
  4  5  2  0
  5  6  1  0
  6  7  1  0
  7  8  2  0
  8  9  1  0
  9 10  2  0
 10 11  1  0
 10 12  1  0
 12 13  2  0
  6 14  1  0
 14 15  2  0
 15 16  1  0
 16 17  1  0
 17 18  1  0
 18 19  1  0
 16 20  2  0
 20 21  1  0
 21 22  1  0
 22 23  2  0
 22 24  1  0
 24 25  1  0
 25 26  2  0
 26 27  1  0
 27 28  2  0
 28 29  1  0
 29 30  2  0
 29 31  1  0
 31 32  2  0
 31 33  1  0
 33 34  1  0
 21 35  2  0
 35  4  1  0
 13  7  1  0
 35 14  1  0
 19 17  1  0
 30 25  1  0
 34 28  1  0
M  END
>  <name>  (899) 
P125921

>  <alias>  (899) 
None

>  <smina_score_min>  (899) 
-9.94

>  <exports>  (899) 
['/opt/xchem-fragalysis-2/maxwin/BulkDock/OUTPUTS/openbind_xx01zvns2b_c2_elabs_1LOUTNY.sdf', '/opt/xchem-fragalysis-2/maxwin/BulkDock/OUTPUTS/openbind_xx01zvns2b_c2_elabs_1LSYIIV.sdf']

>  <tags>  (899) 
syndirella_placed,openbind_xx01zvns2b_c2_elabs,openbind_xx01zvns2b_c2_elabs_scored_6.2plus,syndirella_product,openbind_xx01zvns2b_c2_elabs_scored,openbind_xx01zvns2b_c2_elabs_scored_top80percent,BulkDock Fragalysis export

>  <subsites>  (899) 
1 - Z4590/B/203/1

>  <smiles>  (899) 
CC(C)c1nn(-c2ccc(F)cc2)c2nc(C3CC3)cc(C(=O)Nc3ccc4c(c3)C(=O)NC4)c12

>  <HIPPO Pose ID>  (899) 
125921

>  <energy_score>  (899) 
-71.146655

>  <inchikey>  (899) 
FWZIXVOLNWAVQW-UHFFFAOYSA-N

>  <gnina_score_min>  (899) 
6.679

>  <gnina_score>  (899) 
6.828

>  <ref_mols>  (899) 
Z3559a

>  <HIPPO Compound ID>  (899) 
188081

>  <distance_score>  (899) 
0.377073

>  <rmsd(smina/fragmenstein)>  (899) 
0.897

>  <ref_pdb>  (899) 
Z3559a

>  <inspiration_score>  (899) 
None

$$$$
P125924
     RDKit          3D

 35 40  0  0  0  0  0  0  0  0999 V2000
   -4.1034    7.7720  -14.0742 C   0  0  0  0  0  0  0  0  0  0  0  0
   -4.1425    6.2463  -14.1862 C   0  0  0  0  0  0  0  0  0  0  0  0
   -2.7332    5.6670  -14.0150 C   0  0  0  0  0  0  0  0  0  0  0  0
   -4.7882    5.8117  -15.4774 C   0  0  0  0  0  0  0  0  0  0  0  0
   -4.0871    5.8789  -16.6160 N   0  0  0  0  0  0  0  0  0  0  0  0
   -4.9293    5.4281  -17.5892 N   0  0  0  0  0  0  0  0  0  0  0  0
   -4.4769    5.4124  -18.9459 C   0  0  0  0  0  0  0  0  0  0  0  0
   -5.3141    5.0385  -20.0043 C   0  0  0  0  0  0  0  0  0  0  0  0
   -4.8256    5.0126  -21.3154 C   0  0  0  0  0  0  0  0  0  0  0  0
   -3.5075    5.3619  -21.5713 C   0  0  0  0  0  0  0  0  0  0  0  0
   -3.0470    5.3326  -22.8284 F   0  0  0  0  0  0  0  0  0  0  0  0
   -2.6623    5.7453  -20.5395 C   0  0  0  0  0  0  0  0  0  0  0  0
   -3.1444    5.7744  -19.2281 C   0  0  0  0  0  0  0  0  0  0  0  0
   -6.1524    5.0388  -17.0552 C   0  0  0  0  0  0  0  0  0  0  0  0
   -7.2072    4.5197  -17.7131 N   0  0  0  0  0  0  0  0  0  0  0  0
   -8.3114    4.2534  -16.9823 C   0  0  0  0  0  0  0  0  0  0  0  0
   -9.5522    3.7738  -17.7033 C   0  0  0  0  0  0  0  0  0  0  0  0
   -9.7147    3.9724  -19.1883 C   0  0  0  0  0  0  0  0  0  0  0  0
   -9.4675    2.5982  -18.6432 C   0  0  0  0  0  0  0  0  0  0  0  0
   -8.3640    4.4857  -15.6106 C   0  0  0  0  0  0  0  0  0  0  0  0
   -7.2586    5.0318  -14.9552 C   0  0  0  0  0  0  0  0  0  0  0  0
   -7.3882    5.4793  -13.5565 C   0  0  0  0  0  0  0  0  0  0  0  0
   -7.1910    6.6073  -13.3291 O   0  0  0  0  0  0  0  0  0  0  0  0
   -7.8262    4.3303  -12.6205 N   0  0  0  0  0  0  0  0  0  0  0  0
   -8.0146    4.3095  -11.2395 C   0  0  0  0  0  0  0  0  0  0  0  0
   -7.7903    5.4628  -10.4689 C   0  0  0  0  0  0  0  0  0  0  0  0
   -7.9821    5.4511   -9.0848 C   0  0  0  0  0  0  0  0  0  0  0  0
   -8.3993    4.2742   -8.4930 C   0  0  0  0  0  0  0  0  0  0  0  0
   -8.6221    3.1284   -9.2508 C   0  0  0  0  0  0  0  0  0  0  0  0
   -8.4339    3.1252  -10.6260 C   0  0  0  0  0  0  0  0  0  0  0  0
   -9.0924    2.0247   -8.3555 C   0  0  0  0  0  0  0  0  0  0  0  0
   -8.9947    2.5632   -6.9807 N   0  0  0  0  0  0  0  0  0  0  0  0
  -10.1298    2.2278   -6.1443 C   0  0  0  0  0  0  0  0  0  0  0  0
   -8.7134    4.0020   -7.0582 C   0  0  0  0  0  0  0  0  0  0  0  0
   -6.0962    5.3052  -15.6940 C   0  0  0  0  0  0  0  0  0  0  0  0
  1  2  1  0
  2  3  1  0
  2  4  1  0
  4  5  2  0
  5  6  1  0
  6  7  1  0
  7  8  2  0
  8  9  1  0
  9 10  2  0
 10 11  1  0
 10 12  1  0
 12 13  2  0
  6 14  1  0
 14 15  2  0
 15 16  1  0
 16 17  1  0
 17 18  1  0
 18 19  1  0
 16 20  2  0
 20 21  1  0
 21 22  1  0
 22 23  2  0
 22 24  1  0
 24 25  1  0
 25 26  2  0
 26 27  1  0
 27 28  2  0
 28 29  1  0
 29 30  2  0
 29 31  1  0
 31 32  1  0
 32 33  1  0
 32 34  1  0
 21 35  2  0
 35  4  1  0
 13  7  1  0
 35 14  1  0
 19 17  1  0
 30 25  1  0
 34 28  1  0
M  END
>  <name>  (900) 
P125924

>  <alias>  (900) 
None

>  <smina_score_min>  (900) 
-9.785

>  <exports>  (900) 
['/opt/xchem-fragalysis-2/maxwin/BulkDock/OUTPUTS/openbind_xx01zvns2b_c2_elabs_1LOUTNY.sdf', '/opt/xchem-fragalysis-2/maxwin/BulkDock/OUTPUTS/openbind_xx01zvns2b_c2_elabs_1LSYIIV.sdf']

>  <tags>  (900) 
syndirella_placed,openbind_xx01zvns2b_c2_elabs,openbind_xx01zvns2b_c2_elabs_scored_6.2plus,syndirella_product,openbind_xx01zvns2b_c2_elabs_scored,openbind_xx01zvns2b_c2_elabs_scored_top80percent,BulkDock Fragalysis export

>  <subsites>  (900) 
1 - Z4590/B/203/1

>  <smiles>  (900) 
CC(C)c1nn(-c2ccc(F)cc2)c2nc(C3CC3)cc(C(=O)Nc3ccc4c(c3)CN(C)C4)c12

>  <HIPPO Pose ID>  (900) 
125924

>  <energy_score>  (900) 
-78.858268

>  <inchikey>  (900) 
RZJYGJNFCYBYHS-UHFFFAOYSA-N

>  <gnina_score_min>  (900) 
6.777

>  <gnina_score>  (900) 
6.855

>  <ref_mols>  (900) 
Z3559a

>  <HIPPO Compound ID>  (900) 
188089

>  <distance_score>  (900) 
0.393947

>  <rmsd(smina/fragmenstein)>  (900) 
0.971

>  <ref_pdb>  (900) 
Z3559a

>  <inspiration_score>  (900) 
None

$$$$
P125925
     RDKit          3D

 35 40  0  0  0  0  0  0  0  0999 V2000
   -1.0849    6.4742  -20.5493 C   0  0  0  0  0  0  0  0  0  0  0  0
   -2.4599    5.9168  -20.3422 C   0  0  0  0  0  0  0  0  0  0  0  0
   -3.1348    5.3120  -21.3774 C   0  0  0  0  0  0  0  0  0  0  0  0
   -4.3910    4.8200  -21.0875 C   0  0  0  0  0  0  0  0  0  0  0  0
   -5.1759    4.1084  -22.1391 C   0  0  0  0  0  0  0  0  0  0  0  0
   -4.9564    4.9217  -19.8685 N   0  0  0  0  0  0  0  0  0  0  0  0
   -4.2418    5.5308  -18.9088 C   0  0  0  0  0  0  0  0  0  0  0  0
   -4.7698    5.6329  -17.5783 N   0  0  0  0  0  0  0  0  0  0  0  0
   -4.0160    6.2378  -16.6009 N   0  0  0  0  0  0  0  0  0  0  0  0
   -4.7630    6.1873  -15.5004 C   0  0  0  0  0  0  0  0  0  0  0  0
   -4.2450    6.7970  -14.2496 C   0  0  0  0  0  0  0  0  0  0  0  0
   -5.9964    5.5407  -15.7330 C   0  0  0  0  0  0  0  0  0  0  0  0
   -7.1368    5.2112  -14.9989 C   0  0  0  0  0  0  0  0  0  0  0  0
   -7.2660    5.6437  -13.6012 C   0  0  0  0  0  0  0  0  0  0  0  0
   -7.2554    6.7909  -13.3451 O   0  0  0  0  0  0  0  0  0  0  0  0
   -7.4254    4.4488  -12.7051 N   0  0  0  0  0  0  0  0  0  0  0  0
   -6.0262    3.9349  -12.1798 C   0  0  0  0  0  0  0  0  0  0  0  0
   -7.7114    4.3621  -11.2723 C   0  0  0  0  0  0  0  0  0  0  0  0
   -7.6437    5.5078  -10.4422 C   0  0  0  0  0  0  0  0  0  0  0  0
   -7.9750    5.4294   -9.0893 C   0  0  0  0  0  0  0  0  0  0  0  0
   -8.4476    4.2231   -8.6122 C   0  0  0  0  0  0  0  0  0  0  0  0
   -8.6233    3.1241   -9.4544 C   0  0  0  0  0  0  0  0  0  0  0  0
   -8.2848    3.1751  -10.7873 C   0  0  0  0  0  0  0  0  0  0  0  0
   -9.1929    1.9877   -8.6766 C   0  0  0  0  0  0  0  0  0  0  0  0
   -9.6925    2.6296   -7.4403 N   0  0  0  0  0  0  0  0  0  0  0  0
   -9.6260    1.7194   -6.3225 C   0  0  0  0  0  0  0  0  0  0  0  0
   -8.8681    3.8367   -7.2317 C   0  0  0  0  0  0  0  0  0  0  0  0
   -8.1899    4.5584  -15.6323 C   0  0  0  0  0  0  0  0  0  0  0  0
   -8.1139    4.2960  -16.9991 C   0  0  0  0  0  0  0  0  0  0  0  0
   -9.3482    3.7478  -17.6913 C   0  0  0  0  0  0  0  0  0  0  0  0
   -9.2407    2.6320  -18.6972 C   0  0  0  0  0  0  0  0  0  0  0  0
   -9.5990    4.0143  -19.1522 C   0  0  0  0  0  0  0  0  0  0  0  0
   -7.0121    4.5943  -17.7365 N   0  0  0  0  0  0  0  0  0  0  0  0
   -5.9951    5.1981  -17.0798 C   0  0  0  0  0  0  0  0  0  0  0  0
   -3.0016    6.0418  -19.1179 N   0  0  0  0  0  0  0  0  0  0  0  0
  1  2  1  0
  2  3  2  0
  3  4  1  0
  4  5  1  0
  4  6  2  0
  6  7  1  0
  7  8  1  0
  8  9  1  0
  9 10  2  0
 10 11  1  0
 10 12  1  0
 12 13  2  0
 13 14  1  0
 14 15  2  0
 14 16  1  0
 16 17  1  0
 16 18  1  0
 18 19  2  0
 19 20  1  0
 20 21  2  0
 21 22  1  0
 22 23  2  0
 22 24  1  0
 24 25  1  0
 25 26  1  0
 25 27  1  0
 13 28  1  0
 28 29  2  0
 29 30  1  0
 30 31  1  0
 31 32  1  0
 29 33  1  0
 33 34  2  0
  7 35  2  0
 35  2  1  0
 34  8  1  0
 34 12  1  0
 23 18  1  0
 32 30  1  0
 27 21  1  0
M  END
>  <name>  (901) 
P125925

>  <alias>  (901) 
None

>  <smina_score_min>  (901) 
-9.84

>  <exports>  (901) 
['/opt/xchem-fragalysis-2/maxwin/BulkDock/OUTPUTS/openbind_xx01zvns2b_c2_elabs_1LOUTNY.sdf', '/opt/xchem-fragalysis-2/maxwin/BulkDock/OUTPUTS/openbind_xx01zvns2b_c2_elabs_1LSYIIV.sdf']

>  <tags>  (901) 
syndirella_placed,openbind_xx01zvns2b_c2_elabs,openbind_xx01zvns2b_c2_elabs_scored_6.2plus,syndirella_product,openbind_xx01zvns2b_c2_elabs_scored,openbind_xx01zvns2b_c2_elabs_scored_top80percent,BulkDock Fragalysis export

>  <subsites>  (901) 
1 - Z4590/B/203/1

>  <smiles>  (901) 
Cc1cc(C)nc(-n2nc(C)c3c(C(=O)N(C)c4ccc5c(c4)CN(C)C5)cc(C4CC4)nc32)n1

>  <HIPPO Pose ID>  (901) 
125925

>  <energy_score>  (901) 
-24.63763

>  <inchikey>  (901) 
INMGMLGBIGEKEY-UHFFFAOYSA-N

>  <gnina_score_min>  (901) 
6.687

>  <gnina_score>  (901) 
6.74

>  <ref_mols>  (901) 
Z3559a

>  <HIPPO Compound ID>  (901) 
188090

>  <distance_score>  (901) 
0.572511

>  <rmsd(smina/fragmenstein)>  (901) 
0.241

>  <ref_pdb>  (901) 
Z3559a

>  <inspiration_score>  (901) 
None

$$$$
P125926
     RDKit          3D

 35 40  0  0  0  0  0  0  0  0999 V2000
   -4.2174    7.7499  -13.8904 C   0  0  0  0  0  0  0  0  0  0  0  0
   -3.9859    6.2767  -14.2250 C   0  0  0  0  0  0  0  0  0  0  0  0
   -4.1381    5.3768  -13.0023 C   0  0  0  0  0  0  0  0  0  0  0  0
   -4.7523    5.8366  -15.4514 C   0  0  0  0  0  0  0  0  0  0  0  0
   -4.0742    5.8904  -16.6067 N   0  0  0  0  0  0  0  0  0  0  0  0
   -4.9276    5.4416  -17.5636 N   0  0  0  0  0  0  0  0  0  0  0  0
   -4.4884    5.4188  -18.9255 C   0  0  0  0  0  0  0  0  0  0  0  0
   -5.3285    5.0246  -19.9740 C   0  0  0  0  0  0  0  0  0  0  0  0
   -4.8496    4.9948  -21.2891 C   0  0  0  0  0  0  0  0  0  0  0  0
   -3.5401    5.3644  -21.5598 C   0  0  0  0  0  0  0  0  0  0  0  0
   -3.0893    5.3358  -22.8206 F   0  0  0  0  0  0  0  0  0  0  0  0
   -2.6923    5.7682  -20.5383 C   0  0  0  0  0  0  0  0  0  0  0  0
   -3.1633    5.7972  -19.2230 C   0  0  0  0  0  0  0  0  0  0  0  0
   -6.1442    5.0659  -17.0115 C   0  0  0  0  0  0  0  0  0  0  0  0
   -7.2017    4.5480  -17.6658 N   0  0  0  0  0  0  0  0  0  0  0  0
   -8.3035    4.2776  -16.9395 C   0  0  0  0  0  0  0  0  0  0  0  0
   -9.5396    3.7851  -17.6610 C   0  0  0  0  0  0  0  0  0  0  0  0
   -9.4386    2.6316  -18.6276 C   0  0  0  0  0  0  0  0  0  0  0  0
   -9.7193    4.0113  -19.1407 C   0  0  0  0  0  0  0  0  0  0  0  0
   -8.3533    4.5167  -15.5713 C   0  0  0  0  0  0  0  0  0  0  0  0
   -7.2478    5.0714  -14.9179 C   0  0  0  0  0  0  0  0  0  0  0  0
   -7.4078    5.4919  -13.5165 C   0  0  0  0  0  0  0  0  0  0  0  0
   -7.2187    6.6127  -13.2541 O   0  0  0  0  0  0  0  0  0  0  0  0
   -7.7456    4.2928  -12.6029 N   0  0  0  0  0  0  0  0  0  0  0  0
   -8.0056    4.2423  -11.2339 C   0  0  0  0  0  0  0  0  0  0  0  0
   -7.8545    5.3888  -10.4296 C   0  0  0  0  0  0  0  0  0  0  0  0
   -8.0411    5.3249   -9.0455 C   0  0  0  0  0  0  0  0  0  0  0  0
   -8.4002    4.1053   -8.5093 C   0  0  0  0  0  0  0  0  0  0  0  0
   -8.5840    2.9678   -9.2910 C   0  0  0  0  0  0  0  0  0  0  0  0
   -8.3790    3.0185  -10.6617 C   0  0  0  0  0  0  0  0  0  0  0  0
   -8.9624    1.8173   -8.4187 C   0  0  0  0  0  0  0  0  0  0  0  0
   -9.0594    2.4264   -7.1082 N   0  0  0  0  0  0  0  0  0  0  0  0
   -8.6375    3.7381   -7.1079 C   0  0  0  0  0  0  0  0  0  0  0  0
   -8.4633    4.4632   -6.1468 O   0  0  0  0  0  0  0  0  0  0  0  0
   -6.0756    5.3434  -15.6481 C   0  0  0  0  0  0  0  0  0  0  0  0
  1  2  1  0
  2  3  1  0
  2  4  1  0
  4  5  2  0
  5  6  1  0
  6  7  1  0
  7  8  2  0
  8  9  1  0
  9 10  2  0
 10 11  1  0
 10 12  1  0
 12 13  2  0
  6 14  1  0
 14 15  2  0
 15 16  1  0
 16 17  1  0
 17 18  1  0
 18 19  1  0
 16 20  2  0
 20 21  1  0
 21 22  1  0
 22 23  2  0
 22 24  1  0
 24 25  1  0
 25 26  2  0
 26 27  1  0
 27 28  2  0
 28 29  1  0
 29 30  2  0
 29 31  1  0
 31 32  1  0
 32 33  1  0
 33 34  2  0
 21 35  2  0
 35  4  1  0
 13  7  1  0
 35 14  1  0
 19 17  1  0
 30 25  1  0
 33 28  1  0
M  END
>  <name>  (902) 
P125926

>  <alias>  (902) 
None

>  <smina_score_min>  (902) 
-10.122

>  <exports>  (902) 
['/opt/xchem-fragalysis-2/maxwin/BulkDock/OUTPUTS/openbind_xx01zvns2b_c2_elabs_1LOUTNY.sdf', '/opt/xchem-fragalysis-2/maxwin/BulkDock/OUTPUTS/openbind_xx01zvns2b_c2_elabs_1LSYIIV.sdf']

>  <tags>  (902) 
syndirella_placed,openbind_xx01zvns2b_c2_elabs,openbind_xx01zvns2b_c2_elabs_scored_6.2plus,syndirella_product,openbind_xx01zvns2b_c2_elabs_scored,openbind_xx01zvns2b_c2_elabs_scored_top80percent,BulkDock Fragalysis export

>  <subsites>  (902) 
1 - Z4590/B/203/1

>  <smiles>  (902) 
CC(C)c1nn(-c2ccc(F)cc2)c2nc(C3CC3)cc(C(=O)Nc3ccc4c(c3)CNC4=O)c12

>  <HIPPO Pose ID>  (902) 
125926

>  <energy_score>  (902) 
-54.182636

>  <inchikey>  (902) 
VPACFZGZUVKWCV-UHFFFAOYSA-N

>  <gnina_score_min>  (902) 
6.79

>  <gnina_score>  (902) 
6.82

>  <ref_mols>  (902) 
Z3559a

>  <HIPPO Compound ID>  (902) 
188091

>  <distance_score>  (902) 
0.385958

>  <rmsd(smina/fragmenstein)>  (902) 
0.864

>  <ref_pdb>  (902) 
Z3559a

>  <inspiration_score>  (902) 
None

$$$$
P125927
     RDKit          3D

 35 40  0  0  0  0  0  0  0  0999 V2000
  -10.9256    1.8151   -5.5868 C   0  0  0  0  0  0  0  0  0  0  0  0
  -10.2225    3.1118   -5.9234 C   0  0  0  0  0  0  0  0  0  0  0  0
   -9.0005    2.9720   -6.7127 N   0  0  0  0  0  0  0  0  0  0  0  0
   -8.3608    4.2849   -6.9128 C   0  0  0  0  0  0  0  0  0  0  0  0
   -8.2408    4.4797   -8.3830 C   0  0  0  0  0  0  0  0  0  0  0  0
   -7.8007    5.5995   -9.0570 C   0  0  0  0  0  0  0  0  0  0  0  0
   -7.7581    5.5512  -10.4475 C   0  0  0  0  0  0  0  0  0  0  0  0
   -8.1192    4.3867  -11.1482 C   0  0  0  0  0  0  0  0  0  0  0  0
   -7.9988    4.3725  -12.5404 N   0  0  0  0  0  0  0  0  0  0  0  0
   -7.5431    5.4791  -13.5206 C   0  0  0  0  0  0  0  0  0  0  0  0
   -7.2712    6.5985  -13.3255 O   0  0  0  0  0  0  0  0  0  0  0  0
   -7.3631    4.9941  -14.9024 C   0  0  0  0  0  0  0  0  0  0  0  0
   -8.4216    4.4425  -15.6177 C   0  0  0  0  0  0  0  0  0  0  0  0
   -8.2919    4.2374  -16.9932 C   0  0  0  0  0  0  0  0  0  0  0  0
   -9.5094    3.7902  -17.7797 C   0  0  0  0  0  0  0  0  0  0  0  0
   -9.5337    3.8968  -19.2836 C   0  0  0  0  0  0  0  0  0  0  0  0
   -9.4521    2.5500  -18.6321 C   0  0  0  0  0  0  0  0  0  0  0  0
   -7.1490    4.5155  -17.6713 N   0  0  0  0  0  0  0  0  0  0  0  0
   -6.1336    5.0338  -16.9477 C   0  0  0  0  0  0  0  0  0  0  0  0
   -6.1690    5.2870  -15.5816 C   0  0  0  0  0  0  0  0  0  0  0  0
   -4.8981    5.8261  -15.2687 C   0  0  0  0  0  0  0  0  0  0  0  0
   -4.3592    6.2504  -13.9506 C   0  0  0  0  0  0  0  0  0  0  0  0
   -4.1254    5.9414  -16.3478 N   0  0  0  0  0  0  0  0  0  0  0  0
   -4.8808    5.4559  -17.3870 N   0  0  0  0  0  0  0  0  0  0  0  0
   -4.3270    5.4439  -18.7141 C   0  0  0  0  0  0  0  0  0  0  0  0
   -5.0310    4.9259  -19.7372 N   0  0  0  0  0  0  0  0  0  0  0  0
   -4.4328    4.9049  -20.9469 C   0  0  0  0  0  0  0  0  0  0  0  0
   -5.1946    4.2861  -22.0739 C   0  0  0  0  0  0  0  0  0  0  0  0
   -3.1611    5.3946  -21.1669 C   0  0  0  0  0  0  0  0  0  0  0  0
   -2.5019    5.9029  -20.0718 C   0  0  0  0  0  0  0  0  0  0  0  0
   -1.1122    6.4470  -20.2009 C   0  0  0  0  0  0  0  0  0  0  0  0
   -3.0717    5.9411  -18.8548 N   0  0  0  0  0  0  0  0  0  0  0  0
   -8.5680    3.2588  -10.4485 C   0  0  0  0  0  0  0  0  0  0  0  0
   -8.6469    3.3355   -9.0592 C   0  0  0  0  0  0  0  0  0  0  0  0
   -9.1648    2.3424   -8.0583 C   0  0  0  0  0  0  0  0  0  0  0  0
  1  2  1  0
  2  3  1  0
  3  4  1  0
  4  5  1  0
  5  6  2  0
  6  7  1  0
  7  8  2  0
  8  9  1  0
  9 10  1  0
 10 11  2  0
 10 12  1  0
 12 13  2  0
 13 14  1  0
 14 15  1  0
 15 16  1  0
 16 17  1  0
 14 18  2  0
 18 19  1  0
 19 20  2  0
 20 21  1  0
 21 22  1  0
 21 23  2  0
 23 24  1  0
 24 25  1  0
 25 26  2  0
 26 27  1  0
 27 28  1  0
 27 29  2  0
 29 30  1  0
 30 31  1  0
 30 32  2  0
  8 33  1  0
 33 34  2  0
 34 35  1  0
 35  3  1  0
 34  5  1  0
 20 12  1  0
 32 25  1  0
 17 15  1  0
 24 19  1  0
M  END
>  <name>  (903) 
P125927

>  <alias>  (903) 
None

>  <smina_score_min>  (903) 
-9.87

>  <exports>  (903) 
['/opt/xchem-fragalysis-2/maxwin/BulkDock/OUTPUTS/openbind_xx01zvns2b_c2_elabs_1LOUTNY.sdf', '/opt/xchem-fragalysis-2/maxwin/BulkDock/OUTPUTS/openbind_xx01zvns2b_c2_elabs_1LSYIIV.sdf']

>  <tags>  (903) 
syndirella_placed,openbind_xx01zvns2b_c2_elabs,openbind_xx01zvns2b_c2_elabs_scored_6.2plus,syndirella_product,openbind_xx01zvns2b_c2_elabs_scored,openbind_xx01zvns2b_c2_elabs_scored_top80percent,BulkDock Fragalysis export

>  <subsites>  (903) 
1 - Z4590/B/203/1

>  <smiles>  (903) 
CCN1Cc2ccc(NC(=O)c3cc(C4CC4)nc4c3c(C)nn4-c3nc(C)cc(C)n3)cc2C1

>  <HIPPO Pose ID>  (903) 
125927

>  <energy_score>  (903) 
-46.193663

>  <inchikey>  (903) 
PMSQFZHANPICEG-UHFFFAOYSA-N

>  <gnina_score_min>  (903) 
6.69

>  <gnina_score>  (903) 
6.744

>  <ref_mols>  (903) 
Z3559a

>  <HIPPO Compound ID>  (903) 
188092

>  <distance_score>  (903) 
0.536076

>  <rmsd(smina/fragmenstein)>  (903) 
0.938

>  <ref_pdb>  (903) 
Z3559a

>  <inspiration_score>  (903) 
None

$$$$
P125928
     RDKit          3D

 35 40  0  0  0  0  0  0  0  0999 V2000
   -1.0895    6.4389  -20.3566 C   0  0  0  0  0  0  0  0  0  0  0  0
   -2.4764    5.8968  -20.1939 C   0  0  0  0  0  0  0  0  0  0  0  0
   -3.1459    5.3498  -21.2646 C   0  0  0  0  0  0  0  0  0  0  0  0
   -4.4142    4.8665  -21.0149 C   0  0  0  0  0  0  0  0  0  0  0  0
   -5.1905    4.2060  -22.1068 C   0  0  0  0  0  0  0  0  0  0  0  0
   -4.9972    4.9287  -19.8010 N   0  0  0  0  0  0  0  0  0  0  0  0
   -4.2834    5.4768  -18.8030 C   0  0  0  0  0  0  0  0  0  0  0  0
   -4.8246    5.5166  -17.4731 N   0  0  0  0  0  0  0  0  0  0  0  0
   -4.0639    6.0296  -16.4502 N   0  0  0  0  0  0  0  0  0  0  0  0
   -4.8238    5.9236  -15.3614 C   0  0  0  0  0  0  0  0  0  0  0  0
   -4.2796    6.3777  -14.0558 C   0  0  0  0  0  0  0  0  0  0  0  0
   -6.0904    5.3677  -15.6543 C   0  0  0  0  0  0  0  0  0  0  0  0
   -7.2687    5.0650  -14.9614 C   0  0  0  0  0  0  0  0  0  0  0  0
   -7.4282    5.5028  -13.5638 C   0  0  0  0  0  0  0  0  0  0  0  0
   -7.2019    6.6187  -13.3108 O   0  0  0  0  0  0  0  0  0  0  0  0
   -7.8685    4.3405  -12.6515 N   0  0  0  0  0  0  0  0  0  0  0  0
   -8.0260    4.2855  -11.2695 C   0  0  0  0  0  0  0  0  0  0  0  0
   -7.8071    5.4334  -10.4819 C   0  0  0  0  0  0  0  0  0  0  0  0
   -7.9951    5.4021   -9.1000 C   0  0  0  0  0  0  0  0  0  0  0  0
   -8.4110    4.2091   -8.5485 C   0  0  0  0  0  0  0  0  0  0  0  0
   -8.6316    3.0637   -9.3109 C   0  0  0  0  0  0  0  0  0  0  0  0
   -8.4270    3.0809  -10.6807 C   0  0  0  0  0  0  0  0  0  0  0  0
   -9.1512    1.9714   -8.4383 C   0  0  0  0  0  0  0  0  0  0  0  0
   -9.2535    2.6259   -7.1443 N   0  0  0  0  0  0  0  0  0  0  0  0
  -10.0283    2.0589   -6.0724 C   0  0  0  0  0  0  0  0  0  0  0  0
   -8.8217    3.9357   -7.1672 C   0  0  0  0  0  0  0  0  0  0  0  0
   -8.8358    4.7649   -6.2756 O   0  0  0  0  0  0  0  0  0  0  0  0
   -8.3326    4.4928  -15.6547 C   0  0  0  0  0  0  0  0  0  0  0  0
   -8.2230    4.2729  -17.0274 C   0  0  0  0  0  0  0  0  0  0  0  0
   -9.4509    3.7978  -17.7816 C   0  0  0  0  0  0  0  0  0  0  0  0
   -9.5263    3.9187  -19.2813 C   0  0  0  0  0  0  0  0  0  0  0  0
   -9.3911    2.5677  -18.6479 C   0  0  0  0  0  0  0  0  0  0  0  0
   -7.0923    4.5591  -17.7209 N   0  0  0  0  0  0  0  0  0  0  0  0
   -6.0712    5.0954  -17.0165 C   0  0  0  0  0  0  0  0  0  0  0  0
   -3.0324    5.9752  -18.9722 N   0  0  0  0  0  0  0  0  0  0  0  0
  1  2  1  0
  2  3  2  0
  3  4  1  0
  4  5  1  0
  4  6  2  0
  6  7  1  0
  7  8  1  0
  8  9  1  0
  9 10  2  0
 10 11  1  0
 10 12  1  0
 12 13  2  0
 13 14  1  0
 14 15  2  0
 14 16  1  0
 16 17  1  0
 17 18  2  0
 18 19  1  0
 19 20  2  0
 20 21  1  0
 21 22  2  0
 21 23  1  0
 23 24  1  0
 24 25  1  0
 24 26  1  0
 26 27  2  0
 13 28  1  0
 28 29  2  0
 29 30  1  0
 30 31  1  0
 31 32  1  0
 29 33  1  0
 33 34  2  0
  7 35  2  0
 35  2  1  0
 34  8  1  0
 34 12  1  0
 22 17  1  0
 32 30  1  0
 26 20  1  0
M  END
>  <name>  (904) 
P125928

>  <alias>  (904) 
None

>  <smina_score_min>  (904) 
-10.368

>  <exports>  (904) 
['/opt/xchem-fragalysis-2/maxwin/BulkDock/OUTPUTS/openbind_xx01zvns2b_c2_elabs_1LOUTNY.sdf', '/opt/xchem-fragalysis-2/maxwin/BulkDock/OUTPUTS/openbind_xx01zvns2b_c2_elabs_1LSYIIV.sdf']

>  <tags>  (904) 
syndirella_placed,openbind_xx01zvns2b_c2_elabs,openbind_xx01zvns2b_c2_elabs_scored_6.2plus,syndirella_product,openbind_xx01zvns2b_c2_elabs_scored,openbind_xx01zvns2b_c2_elabs_scored_top80percent,BulkDock Fragalysis export

>  <subsites>  (904) 
1 - Z4590/B/203/1

>  <smiles>  (904) 
Cc1cc(C)nc(-n2nc(C)c3c(C(=O)Nc4ccc5c(c4)CN(C)C5=O)cc(C4CC4)nc32)n1

>  <HIPPO Pose ID>  (904) 
125928

>  <energy_score>  (904) 
-31.326673

>  <inchikey>  (904) 
ZHNAHPIAYJUOBZ-UHFFFAOYSA-N

>  <gnina_score_min>  (904) 
6.782

>  <gnina_score>  (904) 
6.717

>  <ref_mols>  (904) 
Z3559a

>  <HIPPO Compound ID>  (904) 
188094

>  <distance_score>  (904) 
0.440078

>  <rmsd(smina/fragmenstein)>  (904) 
1.016

>  <ref_pdb>  (904) 
Z3559a

>  <inspiration_score>  (904) 
None

$$$$
P125933
     RDKit          3D

 35 40  0  0  0  0  0  0  0  0999 V2000
   -1.1638    6.4246  -20.3099 C   0  0  0  0  0  0  0  0  0  0  0  0
   -2.5469    5.8778  -20.1307 C   0  0  0  0  0  0  0  0  0  0  0  0
   -3.2196    5.3149  -21.1913 C   0  0  0  0  0  0  0  0  0  0  0  0
   -4.4845    4.8298  -20.9294 C   0  0  0  0  0  0  0  0  0  0  0  0
   -5.2536    4.1346  -22.0058 C   0  0  0  0  0  0  0  0  0  0  0  0
   -5.0607    4.9063  -19.7124 N   0  0  0  0  0  0  0  0  0  0  0  0
   -4.3426    5.4635  -18.7229 C   0  0  0  0  0  0  0  0  0  0  0  0
   -4.8724    5.5009  -17.3871 N   0  0  0  0  0  0  0  0  0  0  0  0
   -4.0989    5.9978  -16.3667 N   0  0  0  0  0  0  0  0  0  0  0  0
   -4.8464    5.8741  -15.2699 C   0  0  0  0  0  0  0  0  0  0  0  0
   -4.2772    6.2977  -13.9642 C   0  0  0  0  0  0  0  0  0  0  0  0
   -6.1231    5.3307  -15.5544 C   0  0  0  0  0  0  0  0  0  0  0  0
   -7.2986    5.0196  -14.8498 C   0  0  0  0  0  0  0  0  0  0  0  0
   -7.4252    5.4341  -13.4366 C   0  0  0  0  0  0  0  0  0  0  0  0
   -7.1290    6.5344  -13.1822 O   0  0  0  0  0  0  0  0  0  0  0  0
   -7.8459    4.2689  -12.5097 N   0  0  0  0  0  0  0  0  0  0  0  0
   -8.0747    4.2425  -11.1247 C   0  0  0  0  0  0  0  0  0  0  0  0
   -8.6240    3.0829  -10.5624 C   0  0  0  0  0  0  0  0  0  0  0  0
   -8.8017    3.0533   -9.1853 C   0  0  0  0  0  0  0  0  0  0  0  0
   -8.4216    4.1011   -8.3475 C   0  0  0  0  0  0  0  0  0  0  0  0
   -7.8881    5.2516   -8.8851 C   0  0  0  0  0  0  0  0  0  0  0  0
   -7.7271    5.3169  -10.2724 C   0  0  0  0  0  0  0  0  0  0  0  0
   -7.1676    6.4367  -10.7451 F   0  0  0  0  0  0  0  0  0  0  0  0
   -8.6901    3.7493   -6.9247 C   0  0  0  0  0  0  0  0  0  0  0  0
   -9.3219    2.4660   -7.0331 N   0  0  0  0  0  0  0  0  0  0  0  0
   -9.4106    2.0223   -8.3351 C   0  0  0  0  0  0  0  0  0  0  0  0
   -9.9436    1.0020   -8.7116 O   0  0  0  0  0  0  0  0  0  0  0  0
   -8.3689    4.4648  -15.5483 C   0  0  0  0  0  0  0  0  0  0  0  0
   -8.2683    4.2677  -16.9281 C   0  0  0  0  0  0  0  0  0  0  0  0
   -9.4903    3.7951  -17.6936 C   0  0  0  0  0  0  0  0  0  0  0  0
   -9.3966    2.6104  -18.6207 C   0  0  0  0  0  0  0  0  0  0  0  0
   -9.5868    3.9844  -19.1866 C   0  0  0  0  0  0  0  0  0  0  0  0
   -7.1442    4.5649  -17.6253 N   0  0  0  0  0  0  0  0  0  0  0  0
   -6.1163    5.0826  -16.9215 C   0  0  0  0  0  0  0  0  0  0  0  0
   -3.0928    5.9624  -18.9041 N   0  0  0  0  0  0  0  0  0  0  0  0
  1  2  1  0
  2  3  2  0
  3  4  1  0
  4  5  1  0
  4  6  2  0
  6  7  1  0
  7  8  1  0
  8  9  1  0
  9 10  2  0
 10 11  1  0
 10 12  1  0
 12 13  2  0
 13 14  1  0
 14 15  2  0
 14 16  1  0
 16 17  1  0
 17 18  2  0
 18 19  1  0
 19 20  2  0
 20 21  1  0
 21 22  2  0
 22 23  1  0
 20 24  1  0
 24 25  1  0
 25 26  1  0
 26 27  2  0
 13 28  1  0
 28 29  2  0
 29 30  1  0
 30 31  1  0
 31 32  1  0
 29 33  1  0
 33 34  2  0
  7 35  2  0
 35  2  1  0
 34  8  1  0
 34 12  1  0
 22 17  1  0
 32 30  1  0
 26 19  1  0
M  END
>  <name>  (905) 
P125933

>  <alias>  (905) 
None

>  <smina_score_min>  (905) 
-10.157

>  <exports>  (905) 
['/opt/xchem-fragalysis-2/maxwin/BulkDock/OUTPUTS/openbind_xx01zvns2b_c2_elabs_1LOUTNY.sdf', '/opt/xchem-fragalysis-2/maxwin/BulkDock/OUTPUTS/openbind_xx01zvns2b_c2_elabs_1LSYIIV.sdf']

>  <tags>  (905) 
syndirella_placed,openbind_xx01zvns2b_c2_elabs,openbind_xx01zvns2b_c2_elabs_scored_6.2plus,syndirella_product,openbind_xx01zvns2b_c2_elabs_scored,openbind_xx01zvns2b_c2_elabs_scored_top80percent,BulkDock Fragalysis export

>  <subsites>  (905) 
1 - Z4590/B/203/1

>  <smiles>  (905) 
Cc1cc(C)nc(-n2nc(C)c3c(C(=O)Nc4cc5c(cc4F)CNC5=O)cc(C4CC4)nc32)n1

>  <HIPPO Pose ID>  (905) 
125933

>  <energy_score>  (905) 
-37.270297

>  <inchikey>  (905) 
VCNMZZRZKSEUKF-UHFFFAOYSA-N

>  <gnina_score_min>  (905) 
6.634

>  <gnina_score>  (905) 
6.805

>  <ref_mols>  (905) 
Z3559a

>  <HIPPO Compound ID>  (905) 
188099

>  <distance_score>  (905) 
0.431951

>  <rmsd(smina/fragmenstein)>  (905) 
0.993

>  <ref_pdb>  (905) 
Z3559a

>  <inspiration_score>  (905) 
None

$$$$
P125935
     RDKit          3D

 35 40  0  0  0  0  0  0  0  0999 V2000
   -1.1019    6.4850  -20.1176 C   0  0  0  0  0  0  0  0  0  0  0  0
   -2.4903    5.9388  -19.9802 C   0  0  0  0  0  0  0  0  0  0  0  0
   -3.1384    5.3967  -21.0687 C   0  0  0  0  0  0  0  0  0  0  0  0
   -4.4104    4.9102  -20.8491 C   0  0  0  0  0  0  0  0  0  0  0  0
   -5.1677    4.2551  -21.9612 C   0  0  0  0  0  0  0  0  0  0  0  0
   -5.0098    4.9633  -19.6425 N   0  0  0  0  0  0  0  0  0  0  0  0
   -4.3170    5.5045  -18.6240 C   0  0  0  0  0  0  0  0  0  0  0  0
   -4.8954    5.5373  -17.3067 N   0  0  0  0  0  0  0  0  0  0  0  0
   -4.1967    6.0816  -16.2577 N   0  0  0  0  0  0  0  0  0  0  0  0
   -5.0025    5.9557  -15.2006 C   0  0  0  0  0  0  0  0  0  0  0  0
   -4.5260    6.4352  -13.8774 C   0  0  0  0  0  0  0  0  0  0  0  0
   -6.2396    5.3500  -15.5367 C   0  0  0  0  0  0  0  0  0  0  0  0
   -7.4436    4.9934  -14.8960 C   0  0  0  0  0  0  0  0  0  0  0  0
   -7.6628    5.4061  -13.4897 C   0  0  0  0  0  0  0  0  0  0  0  0
   -7.4320    6.5211  -13.2275 O   0  0  0  0  0  0  0  0  0  0  0  0
   -8.0758    4.2253  -12.5768 N   0  0  0  0  0  0  0  0  0  0  0  0
   -8.1938    4.1513  -11.1856 C   0  0  0  0  0  0  0  0  0  0  0  0
   -7.7445    5.2273  -10.3860 C   0  0  0  0  0  0  0  0  0  0  0  0
   -7.7702    5.1597   -8.9878 C   0  0  0  0  0  0  0  0  0  0  0  0
   -8.2781    4.0103   -8.4225 C   0  0  0  0  0  0  0  0  0  0  0  0
   -8.7655    2.9721   -9.1967 C   0  0  0  0  0  0  0  0  0  0  0  0
   -8.7167    3.0008  -10.5834 C   0  0  0  0  0  0  0  0  0  0  0  0
   -9.3109    1.9772   -8.2700 C   0  0  0  0  0  0  0  0  0  0  0  0
   -9.9493    0.9964   -8.5879 O   0  0  0  0  0  0  0  0  0  0  0  0
   -9.0407    2.4206   -7.0101 N   0  0  0  0  0  0  0  0  0  0  0  0
   -8.4195    3.6292   -7.0155 C   0  0  0  0  0  0  0  0  0  0  0  0
   -8.0283    4.2880   -6.0693 O   0  0  0  0  0  0  0  0  0  0  0  0
   -8.4327    4.3511  -15.6443 C   0  0  0  0  0  0  0  0  0  0  0  0
   -8.2086    4.0863  -16.9953 C   0  0  0  0  0  0  0  0  0  0  0  0
   -9.2253    3.3394  -17.8226 C   0  0  0  0  0  0  0  0  0  0  0  0
   -9.4057    3.7755  -19.2549 C   0  0  0  0  0  0  0  0  0  0  0  0
  -10.5251    3.9526  -18.2845 C   0  0  0  0  0  0  0  0  0  0  0  0
   -7.0735    4.4510  -17.6312 N   0  0  0  0  0  0  0  0  0  0  0  0
   -6.1353    5.0665  -16.8912 C   0  0  0  0  0  0  0  0  0  0  0  0
   -3.0649    6.0066  -18.7645 N   0  0  0  0  0  0  0  0  0  0  0  0
  1  2  1  0
  2  3  2  0
  3  4  1  0
  4  5  1  0
  4  6  2  0
  6  7  1  0
  7  8  1  0
  8  9  1  0
  9 10  2  0
 10 11  1  0
 10 12  1  0
 12 13  2  0
 13 14  1  0
 14 15  2  0
 14 16  1  0
 16 17  1  0
 17 18  2  0
 18 19  1  0
 19 20  2  0
 20 21  1  0
 21 22  2  0
 21 23  1  0
 23 24  2  0
 23 25  1  0
 25 26  1  0
 26 27  2  0
 13 28  1  0
 28 29  2  0
 29 30  1  0
 30 31  1  0
 31 32  1  0
 29 33  1  0
 33 34  2  0
  7 35  2  0
 35  2  1  0
 34  8  1  0
 34 12  1  0
 22 17  1  0
 32 30  1  0
 26 20  1  0
M  END
>  <name>  (906) 
P125935

>  <alias>  (906) 
None

>  <smina_score_min>  (906) 
-10.307

>  <exports>  (906) 
['/opt/xchem-fragalysis-2/maxwin/BulkDock/OUTPUTS/openbind_xx01zvns2b_c2_elabs_1LOUTNY.sdf', '/opt/xchem-fragalysis-2/maxwin/BulkDock/OUTPUTS/openbind_xx01zvns2b_c2_elabs_1LSYIIV.sdf']

>  <tags>  (906) 
syndirella_placed,openbind_xx01zvns2b_c2_elabs,openbind_xx01zvns2b_c2_elabs_scored_6.2plus,syndirella_product,openbind_xx01zvns2b_c2_elabs_scored,openbind_xx01zvns2b_c2_elabs_scored_top80percent,BulkDock Fragalysis export

>  <subsites>  (906) 
1 - Z4590/B/203/1

>  <smiles>  (906) 
Cc1cc(C)nc(-n2nc(C)c3c(C(=O)Nc4ccc5c(c4)C(=O)NC5=O)cc(C4CC4)nc32)n1

>  <HIPPO Pose ID>  (906) 
125935

>  <energy_score>  (906) 
-55.179062

>  <inchikey>  (906) 
DJYIMNDRVHPHBN-UHFFFAOYSA-N

>  <gnina_score_min>  (906) 
6.761

>  <gnina_score>  (906) 
6.789

>  <ref_mols>  (906) 
Z3559a

>  <HIPPO Compound ID>  (906) 
188101

>  <distance_score>  (906) 
0.564134

>  <rmsd(smina/fragmenstein)>  (906) 
0.667

>  <ref_pdb>  (906) 
Z3559a

>  <inspiration_score>  (906) 
None

$$$$
P125937
     RDKit          3D

 35 41  0  0  0  0  0  0  0  0999 V2000
   -5.1267    4.7768  -20.7609 C   0  0  0  0  0  0  0  0  0  0  0  0
   -4.6828    5.8095  -19.7244 C   0  0  1  0  0  0  0  0  0  0  0  0
   -5.3427    7.1442  -19.9932 C   0  0  0  0  0  0  0  0  0  0  0  0
   -4.7150    8.4370  -19.5288 C   0  0  0  0  0  0  0  0  0  0  0  0
   -4.7410    8.1037  -20.9937 C   0  0  0  0  0  0  0  0  0  0  0  0
   -4.8560    5.4396  -18.3217 N   0  0  0  0  0  0  0  0  0  0  0  0
   -3.8736    5.8022  -17.4462 N   0  0  0  0  0  0  0  0  0  0  0  0
   -4.4822    5.7568  -16.2594 C   0  0  0  0  0  0  0  0  0  0  0  0
   -5.7996    5.2760  -16.3502 C   0  0  0  0  0  0  0  0  0  0  0  0
   -6.8739    5.0527  -15.4957 C   0  0  0  0  0  0  0  0  0  0  0  0
   -6.7875    5.5437  -14.1223 C   0  0  0  0  0  0  0  0  0  0  0  0
   -6.3920    6.6265  -13.9494 O   0  0  0  0  0  0  0  0  0  0  0  0
   -7.2809    4.4904  -13.1173 N   0  0  0  0  0  0  0  0  0  0  0  0
   -7.4740    4.5737  -11.7528 C   0  0  0  0  0  0  0  0  0  0  0  0
   -7.1204    5.7563  -11.0820 C   0  0  0  0  0  0  0  0  0  0  0  0
   -7.2511    5.8588   -9.7093 C   0  0  0  0  0  0  0  0  0  0  0  0
   -7.7294    4.7570   -9.0406 C   0  0  0  0  0  0  0  0  0  0  0  0
   -8.1062    3.5863   -9.7008 C   0  0  0  0  0  0  0  0  0  0  0  0
   -7.9947    3.4766  -11.0702 C   0  0  0  0  0  0  0  0  0  0  0  0
   -8.6397    2.5927   -8.7248 C   0  0  0  0  0  0  0  0  0  0  0  0
   -8.4638    3.2880   -7.4299 N   0  0  0  0  0  0  0  0  0  0  0  0
   -9.3387    3.0436   -6.3950 C   0  0  0  0  0  0  0  0  0  0  0  0
  -10.1900    1.9444   -6.4341 C   0  0  0  0  0  0  0  0  0  0  0  0
  -11.2459    1.8565   -5.5564 C   0  0  0  0  0  0  0  0  0  0  0  0
  -11.4094    2.8106   -4.5804 C   0  0  0  0  0  0  0  0  0  0  0  0
  -10.4620    3.8019   -4.3910 C   0  0  0  0  0  0  0  0  0  0  0  0
   -9.4255    3.9100   -5.2949 C   0  0  0  0  0  0  0  0  0  0  0  0
   -7.9474    4.6408   -7.5823 C   0  0  0  0  0  0  0  0  0  0  0  0
   -8.0525    4.5189  -16.0064 C   0  0  0  0  0  0  0  0  0  0  0  0
   -8.1453    4.2662  -17.3729 C   0  0  0  0  0  0  0  0  0  0  0  0
   -9.4638    3.7642  -17.9117 C   0  0  0  0  0  0  0  0  0  0  0  0
   -9.4971    2.5186  -18.7555 C   0  0  0  0  0  0  0  0  0  0  0  0
   -9.7834    3.8549  -19.3763 C   0  0  0  0  0  0  0  0  0  0  0  0
   -7.1288    4.5250  -18.2409 N   0  0  0  0  0  0  0  0  0  0  0  0
   -6.0036    5.0160  -17.6907 C   0  0  0  0  0  0  0  0  0  0  0  0
  2  1  1  6
  2  3  1  0
  3  4  1  0
  4  5  1  0
  2  6  1  0
  6  7  1  0
  7  8  2  0
  8  9  1  0
  9 10  2  0
 10 11  1  0
 11 12  2  0
 11 13  1  0
 13 14  1  0
 14 15  2  0
 15 16  1  0
 16 17  2  0
 17 18  1  0
 18 19  2  0
 18 20  1  0
 20 21  1  0
 21 22  1  0
 22 23  2  0
 23 24  1  0
 24 25  2  0
 25 26  1  0
 26 27  2  0
 21 28  1  0
 10 29  1  0
 29 30  2  0
 30 31  1  0
 31 32  1  0
 32 33  1  0
 30 34  1  0
 34 35  2  0
  5  3  1  0
 35  6  1  0
 35  9  1  0
 19 14  1  0
 27 22  1  0
 33 31  1  0
 28 17  1  0
M  END
>  <name>  (907) 
P125937

>  <alias>  (907) 
None

>  <smina_score_min>  (907) 
-9.011

>  <exports>  (907) 
['/opt/xchem-fragalysis-2/maxwin/BulkDock/OUTPUTS/openbind_xx01zvns2b_c2_elabs_1LOUTNY.sdf', '/opt/xchem-fragalysis-2/maxwin/BulkDock/OUTPUTS/openbind_xx01zvns2b_c2_elabs_1LSYIIV.sdf']

>  <tags>  (907) 
syndirella_placed,openbind_xx01zvns2b_c2_elabs,openbind_xx01zvns2b_c2_elabs_scored_6.2plus,syndirella_product,openbind_xx01zvns2b_c2_elabs_scored,openbind_xx01zvns2b_c2_elabs_scored_top80percent,BulkDock Fragalysis export

>  <subsites>  (907) 
1 - Z4590/B/203/1

>  <smiles>  (907) 
C[C@@H](C1CC1)n1ncc2c(C(=O)Nc3ccc4c(c3)CN(c3ccccc3)C4)cc(C3CC3)nc21

>  <HIPPO Pose ID>  (907) 
125937

>  <energy_score>  (907) 
-39.528626

>  <inchikey>  (907) 
HSVLWLRPJOQGSN-SFHVURJKSA-N

>  <gnina_score_min>  (907) 
6.498

>  <gnina_score>  (907) 
6.534

>  <ref_mols>  (907) 
Z3559a

>  <HIPPO Compound ID>  (907) 
183037

>  <distance_score>  (907) 
0.906991

>  <rmsd(smina/fragmenstein)>  (907) 
0.665

>  <ref_pdb>  (907) 
Z3559a

>  <inspiration_score>  (907) 
None

$$$$
P125938
     RDKit          3D

 35 40  0  0  0  0  0  0  0  0999 V2000
   -3.9927    6.2016  -14.8957 C   0  0  0  0  0  0  0  0  0  0  0  0
   -4.7353    5.7433  -16.0963 C   0  0  0  0  0  0  0  0  0  0  0  0
   -4.1373    5.7821  -17.3004 N   0  0  0  0  0  0  0  0  0  0  0  0
   -5.1040    5.3581  -18.1450 N   0  0  0  0  0  0  0  0  0  0  0  0
   -4.9082    5.3714  -19.5752 C   0  0  0  0  0  0  0  0  0  0  0  0
   -5.1446    6.7366  -20.1781 C   0  0  0  0  0  0  0  0  0  0  0  0
   -6.1572    7.4125  -19.5800 F   0  0  0  0  0  0  0  0  0  0  0  0
   -4.0380    7.5160  -20.0391 F   0  0  0  0  0  0  0  0  0  0  0  0
   -6.2364    4.9375  -17.5115 C   0  0  0  0  0  0  0  0  0  0  0  0
   -7.3225    4.4104  -18.0906 N   0  0  0  0  0  0  0  0  0  0  0  0
   -8.3698    4.1783  -17.2659 C   0  0  0  0  0  0  0  0  0  0  0  0
   -9.6628    3.7203  -17.8807 C   0  0  0  0  0  0  0  0  0  0  0  0
   -9.8800    3.8254  -19.3645 C   0  0  0  0  0  0  0  0  0  0  0  0
   -9.6711    2.4802  -18.7304 C   0  0  0  0  0  0  0  0  0  0  0  0
   -8.3224    4.4340  -15.8995 C   0  0  0  0  0  0  0  0  0  0  0  0
   -7.1643    4.9819  -15.3512 C   0  0  0  0  0  0  0  0  0  0  0  0
   -7.1857    5.5308  -13.9991 C   0  0  0  0  0  0  0  0  0  0  0  0
   -6.8337    6.6382  -13.8811 O   0  0  0  0  0  0  0  0  0  0  0  0
   -7.7106    4.5286  -12.9459 N   0  0  0  0  0  0  0  0  0  0  0  0
   -7.8180    4.6439  -11.5690 C   0  0  0  0  0  0  0  0  0  0  0  0
   -7.3675    5.8500  -11.0064 C   0  0  0  0  0  0  0  0  0  0  0  0
   -7.3127    6.0215   -9.6448 C   0  0  0  0  0  0  0  0  0  0  0  0
   -7.7311    4.9692   -8.8697 C   0  0  0  0  0  0  0  0  0  0  0  0
   -8.2581    3.7856   -9.3896 C   0  0  0  0  0  0  0  0  0  0  0  0
   -8.3002    3.6004  -10.7647 C   0  0  0  0  0  0  0  0  0  0  0  0
   -8.7170    2.9104   -8.2503 C   0  0  0  0  0  0  0  0  0  0  0  0
   -8.2489    3.6581   -7.0484 N   0  0  0  0  0  0  0  0  0  0  0  0
   -8.8587    3.6990   -5.8098 C   0  0  0  0  0  0  0  0  0  0  0  0
   -8.2232    4.3883   -4.7444 C   0  0  0  0  0  0  0  0  0  0  0  0
   -8.8584    4.6470   -3.5400 C   0  0  0  0  0  0  0  0  0  0  0  0
  -10.1472    4.1913   -3.3762 C   0  0  0  0  0  0  0  0  0  0  0  0
  -10.7564    3.4298   -4.3809 C   0  0  0  0  0  0  0  0  0  0  0  0
  -10.1117    3.1610   -5.5775 C   0  0  0  0  0  0  0  0  0  0  0  0
   -7.6618    4.9440   -7.4003 C   0  0  0  0  0  0  0  0  0  0  0  0
   -6.0594    5.2268  -16.1765 C   0  0  0  0  0  0  0  0  0  0  0  0
  1  2  1  0
  2  3  2  0
  3  4  1  0
  4  5  1  0
  5  6  1  0
  6  7  1  0
  6  8  1  0
  4  9  1  0
  9 10  2  0
 10 11  1  0
 11 12  1  0
 12 13  1  0
 13 14  1  0
 11 15  2  0
 15 16  1  0
 16 17  1  0
 17 18  2  0
 17 19  1  0
 19 20  1  0
 20 21  2  0
 21 22  1  0
 22 23  2  0
 23 24  1  0
 24 25  2  0
 24 26  1  0
 26 27  1  0
 27 28  1  0
 28 29  2  0
 29 30  1  0
 30 31  2  0
 31 32  1  0
 32 33  2  0
 27 34  1  0
 16 35  2  0
 35  2  1  0
 35  9  1  0
 14 12  1  0
 25 20  1  0
 33 28  1  0
 34 23  1  0
M  END
>  <name>  (908) 
P125938

>  <alias>  (908) 
None

>  <smina_score_min>  (908) 
-8.727

>  <exports>  (908) 
['/opt/xchem-fragalysis-2/maxwin/BulkDock/OUTPUTS/openbind_xx01zvns2b_c2_elabs_1LOUTNY.sdf', '/opt/xchem-fragalysis-2/maxwin/BulkDock/OUTPUTS/openbind_xx01zvns2b_c2_elabs_1LSYIIV.sdf']

>  <tags>  (908) 
syndirella_placed,openbind_xx01zvns2b_c2_elabs,openbind_xx01zvns2b_c2_elabs_scored_6.2plus,syndirella_product,openbind_xx01zvns2b_c2_elabs_scored,openbind_xx01zvns2b_c2_elabs_scored_top80percent,BulkDock Fragalysis export

>  <subsites>  (908) 
1 - Z4590/B/203/1

>  <smiles>  (908) 
Cc1nn(CC(F)F)c2nc(C3CC3)cc(C(=O)Nc3ccc4c(c3)CN(c3ccccc3)C4)c12

>  <HIPPO Pose ID>  (908) 
125938

>  <energy_score>  (908) 
-15.102787

>  <inchikey>  (908) 
BDUAUEKOTQPGAV-UHFFFAOYSA-N

>  <gnina_score_min>  (908) 
6.493

>  <gnina_score>  (908) 
6.481

>  <ref_mols>  (908) 
Z3559a

>  <HIPPO Compound ID>  (908) 
188104

>  <distance_score>  (908) 
0.857613

>  <rmsd(smina/fragmenstein)>  (908) 
0.171

>  <ref_pdb>  (908) 
Z3559a

>  <inspiration_score>  (908) 
None

$$$$
P125939
     RDKit          3D

 35 40  0  0  0  0  0  0  0  0999 V2000
   -3.8244    6.2360  -14.8296 C   0  0  0  0  0  0  0  0  0  0  0  0
   -4.6227    5.8187  -16.0105 C   0  0  0  0  0  0  0  0  0  0  0  0
   -4.0818    5.9377  -17.2334 N   0  0  0  0  0  0  0  0  0  0  0  0
   -5.0262    5.4338  -18.0570 N   0  0  0  0  0  0  0  0  0  0  0  0
   -4.8687    5.4698  -19.4940 C   0  0  0  0  0  0  0  0  0  0  0  0
   -3.4603    5.7835  -19.9402 C   0  0  0  0  0  0  0  0  0  0  0  0
   -2.6372    4.7219  -19.7331 F   0  0  0  0  0  0  0  0  0  0  0  0
   -3.4515    6.0070  -21.2833 F   0  0  0  0  0  0  0  0  0  0  0  0
   -6.1527    5.0251  -17.4011 C   0  0  0  0  0  0  0  0  0  0  0  0
   -7.2519    4.5100  -17.9643 N   0  0  0  0  0  0  0  0  0  0  0  0
   -8.2727    4.2401  -17.1180 C   0  0  0  0  0  0  0  0  0  0  0  0
   -9.5702    3.7517  -17.7178 C   0  0  0  0  0  0  0  0  0  0  0  0
   -9.5552    2.5744  -18.6601 C   0  0  0  0  0  0  0  0  0  0  0  0
   -9.8639    3.9452  -19.1837 C   0  0  0  0  0  0  0  0  0  0  0  0
   -8.1873    4.4694  -15.7415 C   0  0  0  0  0  0  0  0  0  0  0  0
   -7.0166    5.0104  -15.1988 C   0  0  0  0  0  0  0  0  0  0  0  0
   -6.9321    5.4442  -13.7923 C   0  0  0  0  0  0  0  0  0  0  0  0
   -6.4512    6.4896  -13.5956 O   0  0  0  0  0  0  0  0  0  0  0  0
   -7.4708    4.3877  -12.8025 N   0  0  0  0  0  0  0  0  0  0  0  0
   -7.4449    4.3564  -11.4151 C   0  0  0  0  0  0  0  0  0  0  0  0
   -6.6252    5.2891  -10.7413 C   0  0  0  0  0  0  0  0  0  0  0  0
   -6.5591    5.3309   -9.3535 C   0  0  0  0  0  0  0  0  0  0  0  0
   -7.3537    4.4419   -8.6753 C   0  0  0  0  0  0  0  0  0  0  0  0
   -8.1819    3.5499   -9.3208 C   0  0  0  0  0  0  0  0  0  0  0  0
   -8.2315    3.4512  -10.7026 C   0  0  0  0  0  0  0  0  0  0  0  0
   -9.0915    3.0269   -8.3117 C   0  0  0  0  0  0  0  0  0  0  0  0
  -10.0514    2.3652   -8.6494 O   0  0  0  0  0  0  0  0  0  0  0  0
   -8.7372    3.5960   -7.1056 N   0  0  0  0  0  0  0  0  0  0  0  0
   -9.6497    3.9153   -6.0334 C   0  0  0  0  0  0  0  0  0  0  0  0
  -10.1114    2.7753   -5.2238 C   0  0  0  0  0  0  0  0  0  0  0  0
  -11.5805    2.4574   -5.2206 C   0  0  0  0  0  0  0  0  0  0  0  0
  -10.6104    1.4889   -5.8046 C   0  0  0  0  0  0  0  0  0  0  0  0
   -7.6540    4.4133   -7.2586 C   0  0  0  0  0  0  0  0  0  0  0  0
   -7.0753    5.1052   -6.4371 O   0  0  0  0  0  0  0  0  0  0  0  0
   -5.9454    5.2925  -16.0626 C   0  0  0  0  0  0  0  0  0  0  0  0
  1  2  1  0
  2  3  2  0
  3  4  1  0
  4  5  1  0
  5  6  1  0
  6  7  1  0
  6  8  1  0
  4  9  1  0
  9 10  2  0
 10 11  1  0
 11 12  1  0
 12 13  1  0
 13 14  1  0
 11 15  2  0
 15 16  1  0
 16 17  1  0
 17 18  2  0
 17 19  1  0
 19 20  1  0
 20 21  2  0
 21 22  1  0
 22 23  2  0
 23 24  1  0
 24 25  2  0
 24 26  1  0
 26 27  2  0
 26 28  1  0
 28 29  1  0
 29 30  1  0
 30 31  1  0
 31 32  1  0
 28 33  1  0
 33 34  2  0
 16 35  2  0
 35  2  1  0
 35  9  1  0
 14 12  1  0
 25 20  1  0
 32 30  1  0
 33 23  1  0
M  END
>  <name>  (909) 
P125939

>  <alias>  (909) 
None

>  <smina_score_min>  (909) 
-8.418

>  <exports>  (909) 
['/opt/xchem-fragalysis-2/maxwin/BulkDock/OUTPUTS/openbind_xx01zvns2b_c2_elabs_1LOUTNY.sdf', '/opt/xchem-fragalysis-2/maxwin/BulkDock/OUTPUTS/openbind_xx01zvns2b_c2_elabs_1LSYIIV.sdf']

>  <tags>  (909) 
syndirella_placed,openbind_xx01zvns2b_c2_elabs,openbind_xx01zvns2b_c2_elabs_scored_6.2plus,syndirella_product,openbind_xx01zvns2b_c2_elabs_scored,openbind_xx01zvns2b_c2_elabs_scored_top80percent,BulkDock Fragalysis export

>  <subsites>  (909) 
1 - Z4590/B/203/1

>  <smiles>  (909) 
Cc1nn(CC(F)F)c2nc(C3CC3)cc(C(=O)Nc3ccc4c(c3)C(=O)N(CC3CC3)C4=O)c12

>  <HIPPO Pose ID>  (909) 
125939

>  <energy_score>  (909) 
-34.015025

>  <inchikey>  (909) 
OGMWIIACQISDKM-UHFFFAOYSA-N

>  <gnina_score_min>  (909) 
6.324

>  <gnina_score>  (909) 
6.451

>  <ref_mols>  (909) 
Z3559a

>  <HIPPO Compound ID>  (909) 
188106

>  <distance_score>  (909) 
0.839836

>  <rmsd(smina/fragmenstein)>  (909) 
0.978

>  <ref_pdb>  (909) 
Z3559a

>  <inspiration_score>  (909) 
None

$$$$
P125940
     RDKit          3D

 35 39  0  0  0  0  0  0  0  0999 V2000
   -3.9805    6.3285  -14.0709 C   0  0  0  0  0  0  0  0  0  0  0  0
   -4.6208    5.9300  -15.3498 C   0  0  0  0  0  0  0  0  0  0  0  0
   -3.9530    6.0896  -16.4986 N   0  0  0  0  0  0  0  0  0  0  0  0
   -4.8263    5.6819  -17.4573 N   0  0  0  0  0  0  0  0  0  0  0  0
   -4.4902    5.9771  -18.8620 C   0  0  0  0  0  0  0  0  0  0  0  0
   -4.6281    7.4978  -19.0899 C   0  0  0  0  0  0  0  0  0  0  0  0
   -5.4001    5.2722  -19.8799 C   0  0  0  0  0  0  0  0  0  0  0  0
   -3.0320    5.5619  -19.1568 C   0  0  0  0  0  0  0  0  0  0  0  0
   -5.9911    5.1726  -16.9271 C   0  0  0  0  0  0  0  0  0  0  0  0
   -7.0379    4.6495  -17.5907 N   0  0  0  0  0  0  0  0  0  0  0  0
   -8.1135    4.3063  -16.8397 C   0  0  0  0  0  0  0  0  0  0  0  0
   -9.3597    3.8023  -17.5471 C   0  0  0  0  0  0  0  0  0  0  0  0
   -9.2629    2.7075  -18.5818 C   0  0  0  0  0  0  0  0  0  0  0  0
   -9.6041    4.1025  -19.0059 C   0  0  0  0  0  0  0  0  0  0  0  0
   -8.1442    4.4866  -15.4540 C   0  0  0  0  0  0  0  0  0  0  0  0
   -7.0417    5.0439  -14.8011 C   0  0  0  0  0  0  0  0  0  0  0  0
   -7.1485    5.5242  -13.4110 C   0  0  0  0  0  0  0  0  0  0  0  0
   -6.9493    6.6997  -13.2838 O   0  0  0  0  0  0  0  0  0  0  0  0
   -7.5326    4.5280  -12.4516 N   0  0  0  0  0  0  0  0  0  0  0  0
   -7.7010    4.6067  -11.0668 C   0  0  0  0  0  0  0  0  0  0  0  0
   -7.4495    5.8267  -10.4072 C   0  0  0  0  0  0  0  0  0  0  0  0
   -7.6903    5.9695   -9.0447 C   0  0  0  0  0  0  0  0  0  0  0  0
   -8.1621    4.8669   -8.3756 C   0  0  0  0  0  0  0  0  0  0  0  0
   -8.3789    3.6738   -8.9814 C   0  0  0  0  0  0  0  0  0  0  0  0
   -8.1639    3.5008  -10.3392 C   0  0  0  0  0  0  0  0  0  0  0  0
   -8.9936    2.8746   -7.8956 C   0  0  0  0  0  0  0  0  0  0  0  0
   -8.6106    3.2766   -6.4450 N   0  0  0  0  0  0  0  0  0  0  0  0
   -9.3648    3.2047   -5.2215 C   0  0  0  0  0  0  0  0  0  0  0  0
  -10.5154    2.9000   -5.0273 O   0  0  0  0  0  0  0  0  0  0  0  0
   -8.4723    3.7168   -4.0603 C   0  0  0  0  0  0  0  0  0  0  0  0
   -8.6096    5.0749   -3.9185 F   0  0  0  0  0  0  0  0  0  0  0  0
   -8.7675    3.1985   -2.8359 F   0  0  0  0  0  0  0  0  0  0  0  0
   -7.1275    3.5248   -4.2583 F   0  0  0  0  0  0  0  0  0  0  0  0
   -8.7080    4.6711   -7.0302 C   0  0  0  0  0  0  0  0  0  0  0  0
   -5.9084    5.3741  -15.5590 C   0  0  0  0  0  0  0  0  0  0  0  0
  1  2  1  0
  2  3  2  0
  3  4  1  0
  4  5  1  0
  5  6  1  0
  5  7  1  0
  5  8  1  0
  4  9  1  0
  9 10  2  0
 10 11  1  0
 11 12  1  0
 12 13  1  0
 13 14  1  0
 11 15  2  0
 15 16  1  0
 16 17  1  0
 17 18  2  0
 17 19  1  0
 19 20  1  0
 20 21  2  0
 21 22  1  0
 22 23  2  0
 23 24  1  0
 24 25  2  0
 24 26  1  0
 26 27  1  0
 27 28  1  0
 28 29  2  0
 28 30  1  0
 30 31  1  0
 30 32  1  0
 30 33  1  0
 27 34  1  0
 16 35  2  0
 35  2  1  0
 35  9  1  0
 14 12  1  0
 25 20  1  0
 34 23  1  0
M  END
>  <name>  (910) 
P125940

>  <alias>  (910) 
None

>  <smina_score_min>  (910) 
-9.507

>  <exports>  (910) 
['/opt/xchem-fragalysis-2/maxwin/BulkDock/OUTPUTS/openbind_xx01zvns2b_c2_elabs_1LOUTNY.sdf', '/opt/xchem-fragalysis-2/maxwin/BulkDock/OUTPUTS/openbind_xx01zvns2b_c2_elabs_1LSYIIV.sdf']

>  <tags>  (910) 
syndirella_placed,openbind_xx01zvns2b_c2_elabs,openbind_xx01zvns2b_c2_elabs_scored_6.2plus,syndirella_product,openbind_xx01zvns2b_c2_elabs_scored,openbind_xx01zvns2b_c2_elabs_scored_top80percent,BulkDock Fragalysis export

>  <subsites>  (910) 
1 - Z4590/B/203/1

>  <smiles>  (910) 
Cc1nn(C(C)(C)C)c2nc(C3CC3)cc(C(=O)Nc3ccc4c(c3)CN(C(=O)C(F)(F)F)C4)c12

>  <HIPPO Pose ID>  (910) 
125940

>  <energy_score>  (910) 
-5.303469

>  <inchikey>  (910) 
OCMCAAUWMPTHCY-UHFFFAOYSA-N

>  <gnina_score_min>  (910) 
6.474

>  <gnina_score>  (910) 
6.454

>  <ref_mols>  (910) 
Z3559a

>  <HIPPO Compound ID>  (910) 
188107

>  <distance_score>  (910) 
0.757204

>  <rmsd(smina/fragmenstein)>  (910) 
0.72

>  <ref_pdb>  (910) 
Z3559a

>  <inspiration_score>  (910) 
None

$$$$
P125941
     RDKit          3D

 35 40  0  0  0  0  0  0  0  0999 V2000
   -3.9834    6.0565  -14.3484 C   0  0  0  0  0  0  0  0  0  0  0  0
   -4.6636    5.7026  -15.6197 C   0  0  0  0  0  0  0  0  0  0  0  0
   -4.0180    5.8786  -16.7765 N   0  0  0  0  0  0  0  0  0  0  0  0
   -4.9110    5.4964  -17.7268 N   0  0  0  0  0  0  0  0  0  0  0  0
   -4.6015    5.8319  -19.1280 C   0  0  0  0  0  0  0  0  0  0  0  0
   -4.8723    7.3371  -19.3369 C   0  0  0  0  0  0  0  0  0  0  0  0
   -5.4475    5.0581  -20.1432 C   0  0  0  0  0  0  0  0  0  0  0  0
   -3.1129    5.5554  -19.4394 C   0  0  0  0  0  0  0  0  0  0  0  0
   -6.0792    5.0029  -17.1843 C   0  0  0  0  0  0  0  0  0  0  0  0
   -7.1552    4.5182  -17.8284 N   0  0  0  0  0  0  0  0  0  0  0  0
   -8.2255    4.1972  -17.0580 C   0  0  0  0  0  0  0  0  0  0  0  0
   -9.4993    3.7553  -17.7476 C   0  0  0  0  0  0  0  0  0  0  0  0
   -9.6760    3.9193  -19.2351 C   0  0  0  0  0  0  0  0  0  0  0  0
   -9.4813    2.5515  -18.6543 C   0  0  0  0  0  0  0  0  0  0  0  0
   -8.2276    4.3510  -15.6710 C   0  0  0  0  0  0  0  0  0  0  0  0
   -7.0970    4.8678  -15.0447 C   0  0  0  0  0  0  0  0  0  0  0  0
   -7.1805    5.4188  -13.6904 C   0  0  0  0  0  0  0  0  0  0  0  0
   -6.8740    6.5448  -13.6047 O   0  0  0  0  0  0  0  0  0  0  0  0
   -7.6300    4.4138  -12.5986 N   0  0  0  0  0  0  0  0  0  0  0  0
   -7.8781    4.6046  -11.2387 C   0  0  0  0  0  0  0  0  0  0  0  0
   -7.6745    5.9186  -10.7790 C   0  0  0  0  0  0  0  0  0  0  0  0
   -7.8816    6.2633   -9.4677 C   0  0  0  0  0  0  0  0  0  0  0  0
   -8.3098    5.2699   -8.6248 C   0  0  0  0  0  0  0  0  0  0  0  0
   -8.5181    3.9448   -9.0162 C   0  0  0  0  0  0  0  0  0  0  0  0
   -8.2968    3.5907  -10.3512 C   0  0  0  0  0  0  0  0  0  0  0  0
   -8.9964    3.1651   -7.7989 C   0  0  0  0  0  0  0  0  0  0  0  0
   -9.3292    4.2542   -6.8104 N   0  0  0  0  0  0  0  0  0  0  0  0
   -9.1722    4.2288   -5.4163 C   0  0  0  0  0  0  0  0  0  0  0  0
   -9.9043    5.1628   -4.6591 C   0  0  0  0  0  0  0  0  0  0  0  0
   -9.5005    5.5562   -3.3798 C   0  0  0  0  0  0  0  0  0  0  0  0
   -8.3428    5.0311   -2.8364 C   0  0  0  0  0  0  0  0  0  0  0  0
   -7.6311    4.0835   -3.5592 C   0  0  0  0  0  0  0  0  0  0  0  0
   -8.0867    3.6255   -4.8023 C   0  0  0  0  0  0  0  0  0  0  0  0
   -8.6249    5.4879   -7.2039 C   0  0  0  0  0  0  0  0  0  0  0  0
   -5.9658    5.1763  -15.8170 C   0  0  0  0  0  0  0  0  0  0  0  0
  1  2  1  0
  2  3  2  0
  3  4  1  0
  4  5  1  0
  5  6  1  0
  5  7  1  0
  5  8  1  0
  4  9  1  0
  9 10  2  0
 10 11  1  0
 11 12  1  0
 12 13  1  0
 13 14  1  0
 11 15  2  0
 15 16  1  0
 16 17  1  0
 17 18  2  0
 17 19  1  0
 19 20  1  0
 20 21  2  0
 21 22  1  0
 22 23  2  0
 23 24  1  0
 24 25  2  0
 24 26  1  0
 26 27  1  0
 27 28  1  0
 28 29  2  0
 29 30  1  0
 30 31  2  0
 31 32  1  0
 32 33  2  0
 27 34  1  0
 16 35  2  0
 35  2  1  0
 35  9  1  0
 14 12  1  0
 25 20  1  0
 33 28  1  0
 34 23  1  0
M  END
>  <name>  (911) 
P125941

>  <alias>  (911) 
None

>  <smina_score_min>  (911) 
-9.476

>  <exports>  (911) 
['/opt/xchem-fragalysis-2/maxwin/BulkDock/OUTPUTS/openbind_xx01zvns2b_c2_elabs_1LOUTNY.sdf', '/opt/xchem-fragalysis-2/maxwin/BulkDock/OUTPUTS/openbind_xx01zvns2b_c2_elabs_1LSYIIV.sdf']

>  <tags>  (911) 
syndirella_placed,openbind_xx01zvns2b_c2_elabs,openbind_xx01zvns2b_c2_elabs_scored_6.2plus,syndirella_product,openbind_xx01zvns2b_c2_elabs_scored,openbind_xx01zvns2b_c2_elabs_scored_top80percent,BulkDock Fragalysis export

>  <subsites>  (911) 
1 - Z4590/B/203/1

>  <smiles>  (911) 
Cc1nn(C(C)(C)C)c2nc(C3CC3)cc(C(=O)Nc3ccc4c(c3)CN(c3ccccc3)C4)c12

>  <HIPPO Pose ID>  (911) 
125941

>  <energy_score>  (911) 
-19.546277

>  <inchikey>  (911) 
NCYFJWKKIKXHQL-UHFFFAOYSA-N

>  <gnina_score_min>  (911) 
6.484

>  <gnina_score>  (911) 
6.568

>  <ref_mols>  (911) 
Z3559a

>  <HIPPO Compound ID>  (911) 
188109

>  <distance_score>  (911) 
0.880644

>  <rmsd(smina/fragmenstein)>  (911) 
0.749

>  <ref_pdb>  (911) 
Z3559a

>  <inspiration_score>  (911) 
None

$$$$
P125942
     RDKit          3D

 35 40  0  0  0  0  0  0  0  0999 V2000
   -3.5699    5.9317  -14.8445 C   0  0  0  0  0  0  0  0  0  0  0  0
   -4.4258    5.6528  -16.0259 C   0  0  0  0  0  0  0  0  0  0  0  0
   -3.8933    5.7863  -17.2448 N   0  0  0  0  0  0  0  0  0  0  0  0
   -4.8926    5.4510  -18.0991 N   0  0  0  0  0  0  0  0  0  0  0  0
   -4.7414    5.8081  -19.5218 C   0  0  0  0  0  0  0  0  0  0  0  0
   -5.3862    4.8177  -20.5079 C   0  0  0  0  0  0  0  0  0  0  0  0
   -5.3780    7.1934  -19.7278 C   0  0  0  0  0  0  0  0  0  0  0  0
   -3.2466    5.9076  -19.9218 C   0  0  0  0  0  0  0  0  0  0  0  0
   -6.0299    5.0454  -17.4331 C   0  0  0  0  0  0  0  0  0  0  0  0
   -7.1772    4.6056  -17.9717 N   0  0  0  0  0  0  0  0  0  0  0  0
   -8.1706    4.3007  -17.1029 C   0  0  0  0  0  0  0  0  0  0  0  0
   -9.4821    3.7997  -17.6699 C   0  0  0  0  0  0  0  0  0  0  0  0
   -9.8473    4.0335  -19.1135 C   0  0  0  0  0  0  0  0  0  0  0  0
   -9.4747    2.6558  -18.6551 C   0  0  0  0  0  0  0  0  0  0  0  0
   -8.0458    4.4909  -15.7242 C   0  0  0  0  0  0  0  0  0  0  0  0
   -6.8473    4.9821  -15.2003 C   0  0  0  0  0  0  0  0  0  0  0  0
   -6.7082    5.3794  -13.7833 C   0  0  0  0  0  0  0  0  0  0  0  0
   -6.1187    6.3664  -13.5788 O   0  0  0  0  0  0  0  0  0  0  0  0
   -7.2956    4.3414  -12.8000 N   0  0  0  0  0  0  0  0  0  0  0  0
   -7.3605    4.3493  -11.4115 C   0  0  0  0  0  0  0  0  0  0  0  0
   -6.5806    5.3030  -10.7190 C   0  0  0  0  0  0  0  0  0  0  0  0
   -6.5618    5.3624   -9.3311 C   0  0  0  0  0  0  0  0  0  0  0  0
   -7.3656    4.4702   -8.6698 C   0  0  0  0  0  0  0  0  0  0  0  0
   -8.1692    3.5663   -9.3304 C   0  0  0  0  0  0  0  0  0  0  0  0
   -8.1708    3.4514  -10.7135 C   0  0  0  0  0  0  0  0  0  0  0  0
   -9.0914    3.0347   -8.3341 C   0  0  0  0  0  0  0  0  0  0  0  0
  -10.0376    2.3591   -8.6843 O   0  0  0  0  0  0  0  0  0  0  0  0
   -8.7616    3.6083   -7.1222 N   0  0  0  0  0  0  0  0  0  0  0  0
   -9.6816    3.9072   -6.0490 C   0  0  0  0  0  0  0  0  0  0  0  0
  -10.1226    2.7572   -5.2436 C   0  0  0  0  0  0  0  0  0  0  0  0
  -11.5887    2.4243   -5.2189 C   0  0  0  0  0  0  0  0  0  0  0  0
  -10.6173    1.4748   -5.8338 C   0  0  0  0  0  0  0  0  0  0  0  0
   -7.6854    4.4365   -7.2584 C   0  0  0  0  0  0  0  0  0  0  0  0
   -7.1213    5.1279   -6.4265 O   0  0  0  0  0  0  0  0  0  0  0  0
   -5.7814    5.2323  -16.0834 C   0  0  0  0  0  0  0  0  0  0  0  0
  1  2  1  0
  2  3  2  0
  3  4  1  0
  4  5  1  0
  5  6  1  0
  5  7  1  0
  5  8  1  0
  4  9  1  0
  9 10  2  0
 10 11  1  0
 11 12  1  0
 12 13  1  0
 13 14  1  0
 11 15  2  0
 15 16  1  0
 16 17  1  0
 17 18  2  0
 17 19  1  0
 19 20  1  0
 20 21  2  0
 21 22  1  0
 22 23  2  0
 23 24  1  0
 24 25  2  0
 24 26  1  0
 26 27  2  0
 26 28  1  0
 28 29  1  0
 29 30  1  0
 30 31  1  0
 31 32  1  0
 28 33  1  0
 33 34  2  0
 16 35  2  0
 35  2  1  0
 35  9  1  0
 14 12  1  0
 25 20  1  0
 32 30  1  0
 33 23  1  0
M  END
>  <name>  (912) 
P125942

>  <alias>  (912) 
None

>  <smina_score_min>  (912) 
-8.357

>  <exports>  (912) 
['/opt/xchem-fragalysis-2/maxwin/BulkDock/OUTPUTS/openbind_xx01zvns2b_c2_elabs_1LOUTNY.sdf', '/opt/xchem-fragalysis-2/maxwin/BulkDock/OUTPUTS/openbind_xx01zvns2b_c2_elabs_1LSYIIV.sdf']

>  <tags>  (912) 
syndirella_placed,openbind_xx01zvns2b_c2_elabs,openbind_xx01zvns2b_c2_elabs_scored_6.2plus,syndirella_product,openbind_xx01zvns2b_c2_elabs_scored,openbind_xx01zvns2b_c2_elabs_scored_top80percent,BulkDock Fragalysis export

>  <subsites>  (912) 
1 - Z4590/B/203/1

>  <smiles>  (912) 
Cc1nn(C(C)(C)C)c2nc(C3CC3)cc(C(=O)Nc3ccc4c(c3)C(=O)N(CC3CC3)C4=O)c12

>  <HIPPO Pose ID>  (912) 
125942

>  <energy_score>  (912) 
-16.411884

>  <inchikey>  (912) 
KAVVUPOINKGPBT-UHFFFAOYSA-N

>  <gnina_score_min>  (912) 
6.202

>  <gnina_score>  (912) 
6.489

>  <ref_mols>  (912) 
Z3559a

>  <HIPPO Compound ID>  (912) 
188111

>  <distance_score>  (912) 
0.882661

>  <rmsd(smina/fragmenstein)>  (912) 
0.716

>  <ref_pdb>  (912) 
Z3559a

>  <inspiration_score>  (912) 
None

$$$$
P125944
     RDKit          3D

 35 39  0  0  0  0  0  0  0  0999 V2000
   -8.9319    4.1016   -2.4631 C   0  0  0  0  0  0  0  0  0  0  0  0
   -8.7682    4.5559   -3.9189 C   0  0  0  0  0  0  0  0  0  0  0  0
   -8.9450    6.0817   -3.9621 C   0  0  0  0  0  0  0  0  0  0  0  0
   -7.4123    4.2794   -4.2994 O   0  0  0  0  0  0  0  0  0  0  0  0
   -9.8209    3.8518   -4.8319 C   0  0  0  0  0  0  0  0  0  0  0  0
   -9.3227    2.7915   -5.8277 C   0  0  0  0  0  0  0  0  0  0  0  0
   -9.0483    3.3417   -7.1370 N   0  0  0  0  0  0  0  0  0  0  0  0
   -8.1468    4.4519   -7.2617 C   0  0  0  0  0  0  0  0  0  0  0  0
   -7.9781    4.5723   -8.7211 C   0  0  0  0  0  0  0  0  0  0  0  0
   -7.3459    5.5836   -9.4007 C   0  0  0  0  0  0  0  0  0  0  0  0
   -7.3000    5.4790  -10.7795 C   0  0  0  0  0  0  0  0  0  0  0  0
   -7.8646    4.3773  -11.4553 C   0  0  0  0  0  0  0  0  0  0  0  0
   -7.7585    4.3480  -12.8395 N   0  0  0  0  0  0  0  0  0  0  0  0
   -7.1065    5.3528  -13.8185 C   0  0  0  0  0  0  0  0  0  0  0  0
   -6.6249    6.3992  -13.6209 O   0  0  0  0  0  0  0  0  0  0  0  0
   -7.1487    4.9142  -15.2206 C   0  0  0  0  0  0  0  0  0  0  0  0
   -8.2981    4.3815  -15.8055 C   0  0  0  0  0  0  0  0  0  0  0  0
   -8.3444    4.1962  -17.1892 C   0  0  0  0  0  0  0  0  0  0  0  0
   -9.6290    3.7358  -17.8289 C   0  0  0  0  0  0  0  0  0  0  0  0
   -9.6199    2.5066  -18.6978 C   0  0  0  0  0  0  0  0  0  0  0  0
   -9.8331    3.8573  -19.3154 C   0  0  0  0  0  0  0  0  0  0  0  0
   -7.3042    4.4944  -18.0056 N   0  0  0  0  0  0  0  0  0  0  0  0
   -6.2302    5.0139  -17.3998 C   0  0  0  0  0  0  0  0  0  0  0  0
   -6.0667    5.2331  -16.0492 C   0  0  0  0  0  0  0  0  0  0  0  0
   -4.7761    5.7949  -15.9379 C   0  0  0  0  0  0  0  0  0  0  0  0
   -4.1699    5.9407  -17.1234 N   0  0  0  0  0  0  0  0  0  0  0  0
   -5.1057    5.5030  -18.0005 N   0  0  0  0  0  0  0  0  0  0  0  0
   -4.9044    5.6839  -19.4186 C   0  0  0  0  0  0  0  0  0  0  0  0
   -4.7630    7.1499  -19.7517 C   0  0  0  0  0  0  0  0  0  0  0  0
   -4.5176    7.2967  -21.0821 F   0  0  0  0  0  0  0  0  0  0  0  0
   -5.9195    7.8269  -19.5081 F   0  0  0  0  0  0  0  0  0  0  0  0
   -8.5081    3.3542  -10.7524 C   0  0  0  0  0  0  0  0  0  0  0  0
   -8.5592    3.4872   -9.3761 C   0  0  0  0  0  0  0  0  0  0  0  0
   -9.2176    2.6626   -8.3437 C   0  0  0  0  0  0  0  0  0  0  0  0
   -9.8231    1.6327   -8.5616 O   0  0  0  0  0  0  0  0  0  0  0  0
  1  2  1  0
  2  3  1  0
  2  4  1  0
  2  5  1  0
  5  6  1  0
  6  7  1  0
  7  8  1  0
  8  9  1  0
  9 10  2  0
 10 11  1  0
 11 12  2  0
 12 13  1  0
 13 14  1  0
 14 15  2  0
 14 16  1  0
 16 17  2  0
 17 18  1  0
 18 19  1  0
 19 20  1  0
 20 21  1  0
 18 22  2  0
 22 23  1  0
 23 24  2  0
 24 25  1  0
 25 26  2  0
 26 27  1  0
 27 28  1  0
 28 29  1  0
 29 30  1  0
 29 31  1  0
 12 32  1  0
 32 33  2  0
 33 34  1  0
 34 35  2  0
 34  7  1  0
 33  9  1  0
 24 16  1  0
 21 19  1  0
 27 23  1  0
M  END
>  <name>  (913) 
P125944

>  <alias>  (913) 
None

>  <smina_score_min>  (913) 
-8.797

>  <exports>  (913) 
['/opt/xchem-fragalysis-2/maxwin/BulkDock/OUTPUTS/openbind_xx01zvns2b_c2_elabs_1LOUTNY.sdf', '/opt/xchem-fragalysis-2/maxwin/BulkDock/OUTPUTS/openbind_xx01zvns2b_c2_elabs_1LSYIIV.sdf']

>  <tags>  (913) 
syndirella_placed,openbind_xx01zvns2b_c2_elabs,openbind_xx01zvns2b_c2_elabs_scored_6.2plus,syndirella_product,openbind_xx01zvns2b_c2_elabs_scored,openbind_xx01zvns2b_c2_elabs_scored_top80percent,BulkDock Fragalysis export

>  <subsites>  (913) 
1 - Z4590/B/203/1

>  <smiles>  (913) 
CC(C)(O)CCN1Cc2ccc(NC(=O)c3cc(C4CC4)nc4c3cnn4CC(F)F)cc2C1=O

>  <HIPPO Pose ID>  (913) 
125944

>  <energy_score>  (913) 
-33.135657

>  <inchikey>  (913) 
PRMQLFZFVKCFFV-UHFFFAOYSA-N

>  <gnina_score_min>  (913) 
6.318

>  <gnina_score>  (913) 
6.351

>  <ref_mols>  (913) 
Z3559a

>  <HIPPO Compound ID>  (913) 
188116

>  <distance_score>  (913) 
0.597662

>  <rmsd(smina/fragmenstein)>  (913) 
0.381

>  <ref_pdb>  (913) 
Z3559a

>  <inspiration_score>  (913) 
None

$$$$
P125945
     RDKit          3D

 35 40  0  0  0  0  0  0  0  0999 V2000
   -4.7378    5.3256  -19.7758 C   0  0  0  0  0  0  0  0  0  0  0  0
   -4.9475    5.3797  -18.3538 N   0  0  0  0  0  0  0  0  0  0  0  0
   -4.0054    5.9272  -17.5538 N   0  0  0  0  0  0  0  0  0  0  0  0
   -4.5968    5.9352  -16.3533 C   0  0  0  0  0  0  0  0  0  0  0  0
   -3.8832    6.5228  -15.1050 C   0  0  0  0  0  0  0  0  0  0  0  0
   -3.6131    5.6542  -13.9038 C   0  0  0  0  0  0  0  0  0  0  0  0
   -2.4783    6.0706  -14.7903 C   0  0  0  0  0  0  0  0  0  0  0  0
   -5.9074    5.4110  -16.3873 C   0  0  0  0  0  0  0  0  0  0  0  0
   -7.0020    5.2231  -15.5507 C   0  0  0  0  0  0  0  0  0  0  0  0
   -7.0034    5.7641  -14.1938 C   0  0  0  0  0  0  0  0  0  0  0  0
   -6.6641    6.8604  -13.9999 O   0  0  0  0  0  0  0  0  0  0  0  0
   -7.5566    4.7087  -13.2284 N   0  0  0  0  0  0  0  0  0  0  0  0
   -7.7150    4.7424  -11.8662 C   0  0  0  0  0  0  0  0  0  0  0  0
   -7.2049    5.8158  -11.1121 C   0  0  0  0  0  0  0  0  0  0  0  0
   -7.2394    5.7863   -9.7254 C   0  0  0  0  0  0  0  0  0  0  0  0
   -7.8101    4.6810   -9.1440 C   0  0  0  0  0  0  0  0  0  0  0  0
   -8.3919    3.6752   -9.9149 C   0  0  0  0  0  0  0  0  0  0  0  0
   -8.3465    3.6585  -11.2782 C   0  0  0  0  0  0  0  0  0  0  0  0
   -8.9726    2.6862   -9.0301 C   0  0  0  0  0  0  0  0  0  0  0  0
   -9.6119    1.7208   -9.3933 O   0  0  0  0  0  0  0  0  0  0  0  0
   -8.6476    3.1047   -7.7572 N   0  0  0  0  0  0  0  0  0  0  0  0
   -8.6934    2.1928   -6.6630 C   0  0  0  0  0  0  0  0  0  0  0  0
  -10.1016    2.0430   -6.1982 C   0  0  0  0  0  0  0  0  0  0  0  0
  -10.4634    3.0009   -5.0728 C   0  0  0  0  0  0  0  0  0  0  0  0
  -10.4159    4.4844   -5.3743 C   0  0  0  0  0  0  0  0  0  0  0  0
  -11.8504    2.5603   -4.6819 C   0  0  0  0  0  0  0  0  0  0  0  0
   -9.5675    2.8694   -3.9687 O   0  0  0  0  0  0  0  0  0  0  0  0
   -7.8853    4.3257   -7.7129 C   0  0  0  0  0  0  0  0  0  0  0  0
   -8.1606    4.6277  -16.0555 C   0  0  0  0  0  0  0  0  0  0  0  0
   -8.2149    4.2503  -17.3896 C   0  0  0  0  0  0  0  0  0  0  0  0
   -9.5178    3.7217  -17.9285 C   0  0  0  0  0  0  0  0  0  0  0  0
   -9.8249    3.8118  -19.3952 C   0  0  0  0  0  0  0  0  0  0  0  0
   -9.5324    2.4771  -18.7705 C   0  0  0  0  0  0  0  0  0  0  0  0
   -7.1705    4.4252  -18.2318 N   0  0  0  0  0  0  0  0  0  0  0  0
   -6.0844    5.0083  -17.6965 C   0  0  0  0  0  0  0  0  0  0  0  0
  1  2  1  0
  2  3  1  0
  3  4  2  0
  4  5  1  0
  5  6  1  0
  6  7  1  0
  4  8  1  0
  8  9  2  0
  9 10  1  0
 10 11  2  0
 10 12  1  0
 12 13  1  0
 13 14  2  0
 14 15  1  0
 15 16  2  0
 16 17  1  0
 17 18  2  0
 17 19  1  0
 19 20  2  0
 19 21  1  0
 21 22  1  0
 22 23  1  0
 23 24  1  0
 24 25  1  0
 24 26  1  0
 24 27  1  0
 21 28  1  0
  9 29  1  0
 29 30  2  0
 30 31  1  0
 31 32  1  0
 32 33  1  0
 30 34  1  0
 34 35  2  0
 35  2  1  0
  7  5  1  0
 35  8  1  0
 18 13  1  0
 33 31  1  0
 28 16  1  0
M  END
>  <name>  (914) 
P125945

>  <alias>  (914) 
None

>  <smina_score_min>  (914) 
-8.75

>  <exports>  (914) 
['/opt/xchem-fragalysis-2/maxwin/BulkDock/OUTPUTS/openbind_xx01zvns2b_c2_elabs_1LOUTNY.sdf', '/opt/xchem-fragalysis-2/maxwin/BulkDock/OUTPUTS/openbind_xx01zvns2b_c2_elabs_1LSYIIV.sdf']

>  <tags>  (914) 
syndirella_placed,openbind_xx01zvns2b_c2_elabs,openbind_xx01zvns2b_c2_elabs_scored_6.2plus,syndirella_product,openbind_xx01zvns2b_c2_elabs_scored,openbind_xx01zvns2b_c2_elabs_scored_top80percent,BulkDock Fragalysis export

>  <subsites>  (914) 
1 - Z4590/B/203/1

>  <smiles>  (914) 
Cn1nc(C2CC2)c2c(C(=O)Nc3ccc4c(c3)C(=O)N(CCC(C)(C)O)C4)cc(C3CC3)nc21

>  <HIPPO Pose ID>  (914) 
125945

>  <energy_score>  (914) 
-46.068571

>  <inchikey>  (914) 
AIJOPPQNNSNUSE-UHFFFAOYSA-N

>  <gnina_score_min>  (914) 
6.413

>  <gnina_score>  (914) 
6.601

>  <ref_mols>  (914) 
Z3559a

>  <HIPPO Compound ID>  (914) 
188119

>  <distance_score>  (914) 
0.911377

>  <rmsd(smina/fragmenstein)>  (914) 
1.258

>  <ref_pdb>  (914) 
Z3559a

>  <inspiration_score>  (914) 
None

$$$$
P125946
     RDKit          3D

 35 39  0  0  0  0  0  0  0  0999 V2000
  -10.7984    1.6381   -5.9790 C   0  0  0  0  0  0  0  0  0  0  0  0
  -11.5044    2.7420   -5.2389 C   0  0  0  0  0  0  0  0  0  0  0  0
  -10.7427    3.9272   -5.0322 O   0  0  0  0  0  0  0  0  0  0  0  0
   -9.6753    3.7729   -4.1137 C   0  0  0  0  0  0  0  0  0  0  0  0
   -8.3671    4.2691   -4.7038 C   0  0  0  0  0  0  0  0  0  0  0  0
   -7.9939    3.5604   -6.0157 C   0  0  0  0  0  0  0  0  0  0  0  0
   -8.8127    3.9678   -7.1460 N   0  0  0  0  0  0  0  0  0  0  0  0
   -8.4848    5.3532   -7.5028 C   0  0  0  0  0  0  0  0  0  0  0  0
   -8.2065    5.3347   -8.9546 C   0  0  0  0  0  0  0  0  0  0  0  0
   -7.8793    6.4105   -9.7419 C   0  0  0  0  0  0  0  0  0  0  0  0
   -7.6279    6.1633  -11.0795 C   0  0  0  0  0  0  0  0  0  0  0  0
   -7.7157    4.8637  -11.6079 C   0  0  0  0  0  0  0  0  0  0  0  0
   -7.4472    4.6798  -12.9538 N   0  0  0  0  0  0  0  0  0  0  0  0
   -6.9735    5.6800  -14.0253 C   0  0  0  0  0  0  0  0  0  0  0  0
   -6.6604    6.7994  -13.9292 O   0  0  0  0  0  0  0  0  0  0  0  0
   -6.9792    5.0910  -15.3653 C   0  0  0  0  0  0  0  0  0  0  0  0
   -8.1421    4.4984  -15.8642 C   0  0  0  0  0  0  0  0  0  0  0  0
   -8.2292    4.1977  -17.2224 C   0  0  0  0  0  0  0  0  0  0  0  0
   -9.5384    3.7023  -17.7840 C   0  0  0  0  0  0  0  0  0  0  0  0
   -9.5527    2.5117  -18.7055 C   0  0  0  0  0  0  0  0  0  0  0  0
   -9.8622    3.8780  -19.2440 C   0  0  0  0  0  0  0  0  0  0  0  0
   -7.2075    4.4203  -18.0830 N   0  0  0  0  0  0  0  0  0  0  0  0
   -6.1165    4.9894  -17.5518 C   0  0  0  0  0  0  0  0  0  0  0  0
   -5.9121    5.3364  -16.2327 C   0  0  0  0  0  0  0  0  0  0  0  0
   -4.6106    5.9044  -16.2062 C   0  0  0  0  0  0  0  0  0  0  0  0
   -3.8526    6.4387  -15.0469 C   0  0  0  0  0  0  0  0  0  0  0  0
   -4.0585    5.9397  -17.4294 N   0  0  0  0  0  0  0  0  0  0  0  0
   -5.0043    5.4020  -18.2289 N   0  0  0  0  0  0  0  0  0  0  0  0
   -4.8528    5.3767  -19.6668 C   0  0  0  0  0  0  0  0  0  0  0  0
   -3.4137    5.3544  -20.1285 C   0  0  0  0  0  0  0  0  0  0  0  0
   -3.0184    6.6085  -20.4770 F   0  0  0  0  0  0  0  0  0  0  0  0
   -3.3284    4.6092  -21.2689 F   0  0  0  0  0  0  0  0  0  0  0  0
   -8.0674    3.7811  -10.8012 C   0  0  0  0  0  0  0  0  0  0  0  0
   -8.2937    4.0420   -9.4614 C   0  0  0  0  0  0  0  0  0  0  0  0
   -8.6785    3.1161   -8.3592 C   0  0  0  0  0  0  0  0  0  0  0  0
  1  2  1  0
  2  3  1  0
  3  4  1  0
  4  5  1  0
  5  6  1  0
  6  7  1  0
  7  8  1  0
  8  9  1  0
  9 10  2  0
 10 11  1  0
 11 12  2  0
 12 13  1  0
 13 14  1  0
 14 15  2  0
 14 16  1  0
 16 17  2  0
 17 18  1  0
 18 19  1  0
 19 20  1  0
 20 21  1  0
 18 22  2  0
 22 23  1  0
 23 24  2  0
 24 25  1  0
 25 26  1  0
 25 27  2  0
 27 28  1  0
 28 29  1  0
 29 30  1  0
 30 31  1  0
 30 32  1  0
 12 33  1  0
 33 34  2  0
 34 35  1  0
 35  7  1  0
 34  9  1  0
 24 16  1  0
 21 19  1  0
 28 23  1  0
M  END
>  <name>  (915) 
P125946

>  <alias>  (915) 
None

>  <smina_score_min>  (915) 
-7.438

>  <exports>  (915) 
['/opt/xchem-fragalysis-2/maxwin/BulkDock/OUTPUTS/openbind_xx01zvns2b_c2_elabs_1LOUTNY.sdf', '/opt/xchem-fragalysis-2/maxwin/BulkDock/OUTPUTS/openbind_xx01zvns2b_c2_elabs_1LSYIIV.sdf']

>  <tags>  (915) 
syndirella_placed,openbind_xx01zvns2b_c2_elabs,openbind_xx01zvns2b_c2_elabs_scored_6.2plus,syndirella_product,openbind_xx01zvns2b_c2_elabs_scored,openbind_xx01zvns2b_c2_elabs_scored_top80percent,BulkDock Fragalysis export

>  <subsites>  (915) 
1 - Z4590/B/203/1

>  <smiles>  (915) 
CCOCCCN1Cc2ccc(NC(=O)c3cc(C4CC4)nc4c3c(C)nn4CC(F)F)cc2C1

>  <HIPPO Pose ID>  (915) 
125946

>  <energy_score>  (915) 
-43.547019

>  <inchikey>  (915) 
PAWJBTYOPROROC-UHFFFAOYSA-N

>  <gnina_score_min>  (915) 
6.372

>  <gnina_score>  (915) 
6.389

>  <ref_mols>  (915) 
Z3559a

>  <HIPPO Compound ID>  (915) 
188121

>  <distance_score>  (915) 
0.981562

>  <rmsd(smina/fragmenstein)>  (915) 
0.557

>  <ref_pdb>  (915) 
Z3559a

>  <inspiration_score>  (915) 
None

$$$$
P125947
     RDKit          3D

 35 40  0  0  0  0  0  0  0  0999 V2000
   -8.5794    4.8374   -2.5634 C   0  0  0  0  0  0  0  0  0  0  0  0
   -8.8995    4.8732   -4.0519 C   0  0  0  0  0  0  0  0  0  0  0  0
   -8.9432    3.4680   -4.6496 C   0  0  0  0  0  0  0  0  0  0  0  0
   -9.6678    3.3189   -5.9916 C   0  0  0  0  0  0  0  0  0  0  0  0
   -8.9115    3.7597   -7.1501 N   0  0  0  0  0  0  0  0  0  0  0  0
   -8.8553    2.9449   -8.3711 C   0  0  0  0  0  0  0  0  0  0  0  0
   -8.3167    3.9051   -9.3865 C   0  0  0  0  0  0  0  0  0  0  0  0
   -8.0282    3.7400  -10.7357 C   0  0  0  0  0  0  0  0  0  0  0  0
   -7.6062    4.8648  -11.4670 C   0  0  0  0  0  0  0  0  0  0  0  0
   -7.3322    4.7475  -12.8310 N   0  0  0  0  0  0  0  0  0  0  0  0
   -6.9215    5.7294  -13.7981 C   0  0  0  0  0  0  0  0  0  0  0  0
   -6.6327    6.8854  -13.6670 O   0  0  0  0  0  0  0  0  0  0  0  0
   -6.8480    5.2250  -15.1860 C   0  0  0  0  0  0  0  0  0  0  0  0
   -7.8684    4.4626  -15.7628 C   0  0  0  0  0  0  0  0  0  0  0  0
   -7.8004    4.1146  -17.1175 C   0  0  0  0  0  0  0  0  0  0  0  0
   -8.8788    3.2325  -17.6999 C   0  0  0  0  0  0  0  0  0  0  0  0
   -8.8749    2.8713  -19.1627 C   0  0  0  0  0  0  0  0  0  0  0  0
   -9.9300    3.7913  -18.6249 C   0  0  0  0  0  0  0  0  0  0  0  0
   -6.7827    4.5010  -17.9260 N   0  0  0  0  0  0  0  0  0  0  0  0
   -5.8343    5.2452  -17.3346 C   0  0  0  0  0  0  0  0  0  0  0  0
   -5.7943    5.6386  -16.0106 C   0  0  0  0  0  0  0  0  0  0  0  0
   -4.6306    6.4300  -15.9150 C   0  0  0  0  0  0  0  0  0  0  0  0
   -3.9836    6.5456  -17.0792 N   0  0  0  0  0  0  0  0  0  0  0  0
   -4.7216    5.7885  -17.9263 N   0  0  0  0  0  0  0  0  0  0  0  0
   -4.3642    5.6821  -19.3377 C   0  0  0  0  0  0  0  0  0  0  0  0
   -2.8505    5.4744  -19.5537 C   0  0  0  0  0  0  0  0  0  0  0  0
   -2.4710    5.7373  -21.0053 C   0  0  0  0  0  0  0  0  0  0  0  0
   -2.7580    7.1849  -21.4106 C   0  0  0  0  0  0  0  0  0  0  0  0
   -3.8482    7.8533  -20.5702 C   0  0  0  0  0  0  0  0  0  0  0  0
   -4.9298    6.8638  -20.1517 C   0  0  0  0  0  0  0  0  0  0  0  0
   -7.4753    6.1193  -10.8368 C   0  0  0  0  0  0  0  0  0  0  0  0
   -7.7671    6.2792   -9.4872 C   0  0  0  0  0  0  0  0  0  0  0  0
   -8.1801    5.1598   -8.7998 C   0  0  0  0  0  0  0  0  0  0  0  0
   -8.6306    5.0870   -7.4144 C   0  0  0  0  0  0  0  0  0  0  0  0
   -8.7789    6.0699   -6.7138 O   0  0  0  0  0  0  0  0  0  0  0  0
  1  2  1  0
  2  3  1  0
  3  4  1  0
  4  5  1  0
  5  6  1  0
  6  7  1  0
  7  8  2  0
  8  9  1  0
  9 10  1  0
 10 11  1  0
 11 12  2  0
 11 13  1  0
 13 14  2  0
 14 15  1  0
 15 16  1  0
 16 17  1  0
 17 18  1  0
 15 19  2  0
 19 20  1  0
 20 21  2  0
 21 22  1  0
 22 23  2  0
 23 24  1  0
 24 25  1  0
 25 26  1  0
 26 27  1  0
 27 28  1  0
 28 29  1  0
 29 30  1  0
  9 31  2  0
 31 32  1  0
 32 33  2  0
 33 34  1  0
 34 35  2  0
 34  5  1  0
 33  7  1  0
 21 13  1  0
 30 25  1  0
 18 16  1  0
 24 20  1  0
M  END
>  <name>  (916) 
P125947

>  <alias>  (916) 
None

>  <smina_score_min>  (916) 
-8.759

>  <exports>  (916) 
['/opt/xchem-fragalysis-2/maxwin/BulkDock/OUTPUTS/openbind_xx01zvns2b_c2_elabs_1LOUTNY.sdf', '/opt/xchem-fragalysis-2/maxwin/BulkDock/OUTPUTS/openbind_xx01zvns2b_c2_elabs_1LSYIIV.sdf']

>  <tags>  (916) 
syndirella_placed,openbind_xx01zvns2b_c2_elabs,openbind_xx01zvns2b_c2_elabs_scored_6.2plus,syndirella_product,openbind_xx01zvns2b_c2_elabs_scored,openbind_xx01zvns2b_c2_elabs_scored_top80percent,BulkDock Fragalysis export

>  <subsites>  (916) 
1 - Z4590/B/203/1

>  <smiles>  (916) 
CCCCN1Cc2cc(NC(=O)c3cc(C4CC4)nc4c3cnn4C3CCCCC3)ccc2C1=O

>  <HIPPO Pose ID>  (916) 
125947

>  <energy_score>  (916) 
-42.778481

>  <inchikey>  (916) 
ODXKIPMOGLHZSP-UHFFFAOYSA-N

>  <gnina_score_min>  (916) 
6.72

>  <gnina_score>  (916) 
6.515

>  <ref_mols>  (916) 
Z3559a

>  <HIPPO Compound ID>  (916) 
188124

>  <distance_score>  (916) 
0.979821

>  <rmsd(smina/fragmenstein)>  (916) 
0.875

>  <ref_pdb>  (916) 
Z3559a

>  <inspiration_score>  (916) 
None

$$$$
P125950
     RDKit          3D

 35 40  0  0  0  0  0  0  0  0999 V2000
   -9.4471    5.0287   -2.6255 C   0  0  0  0  0  0  0  0  0  0  0  0
   -8.9243    4.7408   -4.0423 C   0  0  0  0  0  0  0  0  0  0  0  0
   -7.4014    4.6934   -3.9537 C   0  0  0  0  0  0  0  0  0  0  0  0
   -9.5952    3.4542   -4.5705 C   0  0  0  0  0  0  0  0  0  0  0  0
   -9.0929    2.7446   -5.8445 C   0  0  0  0  0  0  0  0  0  0  0  0
   -9.3406    3.4404   -7.0984 N   0  0  0  0  0  0  0  0  0  0  0  0
   -8.5032    4.6263   -7.2634 C   0  0  0  0  0  0  0  0  0  0  0  0
   -8.2885    4.7407   -8.7248 C   0  0  0  0  0  0  0  0  0  0  0  0
   -7.8059    5.8310   -9.4091 C   0  0  0  0  0  0  0  0  0  0  0  0
   -7.6290    5.6933  -10.7744 C   0  0  0  0  0  0  0  0  0  0  0  0
   -7.9203    4.4821  -11.4284 C   0  0  0  0  0  0  0  0  0  0  0  0
   -7.6772    4.4041  -12.7951 N   0  0  0  0  0  0  0  0  0  0  0  0
   -7.0799    5.4453  -13.7697 C   0  0  0  0  0  0  0  0  0  0  0  0
   -6.6276    6.5027  -13.5642 O   0  0  0  0  0  0  0  0  0  0  0  0
   -7.0766    4.9877  -15.1683 C   0  0  0  0  0  0  0  0  0  0  0  0
   -8.1978    4.4185  -15.7706 C   0  0  0  0  0  0  0  0  0  0  0  0
   -8.2077    4.2101  -17.1536 C   0  0  0  0  0  0  0  0  0  0  0  0
   -9.4887    3.7357  -17.8040 C   0  0  0  0  0  0  0  0  0  0  0  0
   -9.6952    3.8722  -19.2893 C   0  0  0  0  0  0  0  0  0  0  0  0
   -9.4789    2.5160  -18.6867 C   0  0  0  0  0  0  0  0  0  0  0  0
   -7.1441    4.4984  -17.9506 N   0  0  0  0  0  0  0  0  0  0  0  0
   -6.0890    5.0476  -17.3256 C   0  0  0  0  0  0  0  0  0  0  0  0
   -5.9833    5.3161  -15.9754 C   0  0  0  0  0  0  0  0  0  0  0  0
   -4.7246    5.9318  -15.8301 C   0  0  0  0  0  0  0  0  0  0  0  0
   -4.0771    6.0645  -16.9899 N   0  0  0  0  0  0  0  0  0  0  0  0
   -4.9272    5.5167  -17.8937 N   0  0  0  0  0  0  0  0  0  0  0  0
   -4.6303    5.5823  -19.3236 C   0  0  0  0  0  0  0  0  0  0  0  0
   -3.1190    5.4712  -19.6368 C   0  0  0  0  0  0  0  0  0  0  0  0
   -2.8121    5.9721  -21.0427 C   0  0  0  0  0  0  0  0  0  0  0  0
   -3.1429    7.4589  -21.1895 C   0  0  0  0  0  0  0  0  0  0  0  0
   -4.2409    7.9343  -20.2355 C   0  0  0  0  0  0  0  0  0  0  0  0
   -5.2625    6.8360  -19.9633 C   0  0  0  0  0  0  0  0  0  0  0  0
   -8.4192    3.3831  -10.7161 C   0  0  0  0  0  0  0  0  0  0  0  0
   -8.6028    3.5346   -9.3495 C   0  0  0  0  0  0  0  0  0  0  0  0
   -9.0999    2.5790   -8.3004 C   0  0  0  0  0  0  0  0  0  0  0  0
  1  2  1  0
  2  3  1  0
  2  4  1  0
  4  5  1  0
  5  6  1  0
  6  7  1  0
  7  8  1  0
  8  9  2  0
  9 10  1  0
 10 11  2  0
 11 12  1  0
 12 13  1  0
 13 14  2  0
 13 15  1  0
 15 16  2  0
 16 17  1  0
 17 18  1  0
 18 19  1  0
 19 20  1  0
 17 21  2  0
 21 22  1  0
 22 23  2  0
 23 24  1  0
 24 25  2  0
 25 26  1  0
 26 27  1  0
 27 28  1  0
 28 29  1  0
 29 30  1  0
 30 31  1  0
 31 32  1  0
 11 33  1  0
 33 34  2  0
 34 35  1  0
 35  6  1  0
 34  8  1  0
 23 15  1  0
 32 27  1  0
 20 18  1  0
 26 22  1  0
M  END
>  <name>  (917) 
P125950

>  <alias>  (917) 
None

>  <smina_score_min>  (917) 
-8.704

>  <exports>  (917) 
['/opt/xchem-fragalysis-2/maxwin/BulkDock/OUTPUTS/openbind_xx01zvns2b_c2_elabs_1LOUTNY.sdf', '/opt/xchem-fragalysis-2/maxwin/BulkDock/OUTPUTS/openbind_xx01zvns2b_c2_elabs_1LSYIIV.sdf']

>  <tags>  (917) 
syndirella_placed,openbind_xx01zvns2b_c2_elabs,openbind_xx01zvns2b_c2_elabs_scored_6.2plus,syndirella_product,openbind_xx01zvns2b_c2_elabs_scored,openbind_xx01zvns2b_c2_elabs_scored_top80percent,BulkDock Fragalysis export

>  <subsites>  (917) 
1 - Z4590/B/203/1

>  <smiles>  (917) 
CC(C)CCN1Cc2ccc(NC(=O)c3cc(C4CC4)nc4c3cnn4C3CCCCC3)cc2C1

>  <HIPPO Pose ID>  (917) 
125950

>  <energy_score>  (917) 
-36.519964

>  <inchikey>  (917) 
FRWNBXVETZZZBY-UHFFFAOYSA-N

>  <gnina_score_min>  (917) 
6.597

>  <gnina_score>  (917) 
6.643

>  <ref_mols>  (917) 
Z3559a

>  <HIPPO Compound ID>  (917) 
188126

>  <distance_score>  (917) 
0.610158

>  <rmsd(smina/fragmenstein)>  (917) 
0.267

>  <ref_pdb>  (917) 
Z3559a

>  <inspiration_score>  (917) 
None

$$$$
P125953
     RDKit          3D

 35 40  0  0  0  0  0  0  0  0999 V2000
  -11.7142    2.0565   -5.3130 C   0  0  0  0  0  0  0  0  0  0  0  0
  -10.8019    2.9942   -5.8413 O   0  0  0  0  0  0  0  0  0  0  0  0
   -9.5325    2.3705   -6.0183 C   0  0  0  0  0  0  0  0  0  0  0  0
   -8.9763    2.9014   -7.2095 N   0  0  0  0  0  0  0  0  0  0  0  0
   -8.2800    4.0662   -7.2377 C   0  0  0  0  0  0  0  0  0  0  0  0
   -7.8834    4.7730   -6.3279 O   0  0  0  0  0  0  0  0  0  0  0  0
   -8.0547    4.3502   -8.6443 C   0  0  0  0  0  0  0  0  0  0  0  0
   -7.4641    5.4475   -9.2203 C   0  0  0  0  0  0  0  0  0  0  0  0
   -7.3746    5.4448  -10.6083 C   0  0  0  0  0  0  0  0  0  0  0  0
   -7.8561    4.3589  -11.3756 C   0  0  0  0  0  0  0  0  0  0  0  0
   -7.6639    4.3675  -12.7499 N   0  0  0  0  0  0  0  0  0  0  0  0
   -7.0243    5.4323  -13.6662 C   0  0  0  0  0  0  0  0  0  0  0  0
   -6.4893    6.4355  -13.4015 O   0  0  0  0  0  0  0  0  0  0  0  0
   -7.0467    5.0384  -15.0882 C   0  0  0  0  0  0  0  0  0  0  0  0
   -8.1672    4.4905  -15.7097 C   0  0  0  0  0  0  0  0  0  0  0  0
   -8.1636    4.2958  -17.0938 C   0  0  0  0  0  0  0  0  0  0  0  0
   -9.4322    3.7916  -17.7540 C   0  0  0  0  0  0  0  0  0  0  0  0
   -9.3825    2.6002  -18.6756 C   0  0  0  0  0  0  0  0  0  0  0  0
   -9.6607    3.9638  -19.2319 C   0  0  0  0  0  0  0  0  0  0  0  0
   -7.0968    4.6125  -17.8757 N   0  0  0  0  0  0  0  0  0  0  0  0
   -6.0254    5.1190  -17.2375 C   0  0  0  0  0  0  0  0  0  0  0  0
   -5.9341    5.3482  -15.8768 C   0  0  0  0  0  0  0  0  0  0  0  0
   -4.6559    5.9015  -15.6866 C   0  0  0  0  0  0  0  0  0  0  0  0
   -3.9787    6.0341  -16.8251 N   0  0  0  0  0  0  0  0  0  0  0  0
   -4.8279    5.5531  -17.7730 N   0  0  0  0  0  0  0  0  0  0  0  0
   -4.4470    5.7444  -19.1736 C   0  0  0  0  0  0  0  0  0  0  0  0
   -2.9466    5.4983  -19.4333 C   0  0  0  0  0  0  0  0  0  0  0  0
   -2.5155    5.8942  -20.8497 C   0  0  0  0  0  0  0  0  0  0  0  0
   -3.6481    5.8735  -21.8726 C   0  0  0  0  0  0  0  0  0  0  0  0
   -4.6517    4.7782  -21.5602 C   0  0  0  0  0  0  0  0  0  0  0  0
   -5.3025    4.9760  -20.1902 C   0  0  0  0  0  0  0  0  0  0  0  0
   -8.4799    3.2688  -10.7669 C   0  0  0  0  0  0  0  0  0  0  0  0
   -8.5698    3.3025   -9.3895 C   0  0  0  0  0  0  0  0  0  0  0  0
   -9.1989    2.3787   -8.4514 C   0  0  0  0  0  0  0  0  0  0  0  0
   -9.8234    1.3920   -8.7841 O   0  0  0  0  0  0  0  0  0  0  0  0
  1  2  1  0
  2  3  1  0
  3  4  1  0
  4  5  1  0
  5  6  2  0
  5  7  1  0
  7  8  2  0
  8  9  1  0
  9 10  2  0
 10 11  1  0
 11 12  1  0
 12 13  2  0
 12 14  1  0
 14 15  2  0
 15 16  1  0
 16 17  1  0
 17 18  1  0
 18 19  1  0
 16 20  2  0
 20 21  1  0
 21 22  2  0
 22 23  1  0
 23 24  2  0
 24 25  1  0
 25 26  1  0
 26 27  1  0
 27 28  1  0
 28 29  1  0
 29 30  1  0
 30 31  1  0
 10 32  1  0
 32 33  2  0
 33 34  1  0
 34 35  2  0
 34  4  1  0
 33  7  1  0
 22 14  1  0
 31 26  1  0
 19 17  1  0
 25 21  1  0
M  END
>  <name>  (918) 
P125953

>  <alias>  (918) 
None

>  <smina_score_min>  (918) 
-9.345

>  <exports>  (918) 
['/opt/xchem-fragalysis-2/maxwin/BulkDock/OUTPUTS/openbind_xx01zvns2b_c2_elabs_1LOUTNY.sdf', '/opt/xchem-fragalysis-2/maxwin/BulkDock/OUTPUTS/openbind_xx01zvns2b_c2_elabs_1LSYIIV.sdf']

>  <tags>  (918) 
syndirella_placed,openbind_xx01zvns2b_c2_elabs,openbind_xx01zvns2b_c2_elabs_scored_6.2plus,syndirella_product,openbind_xx01zvns2b_c2_elabs_scored,openbind_xx01zvns2b_c2_elabs_scored_top80percent,BulkDock Fragalysis export

>  <subsites>  (918) 
1 - Z4590/B/203/1

>  <smiles>  (918) 
COCN1C(=O)c2ccc(NC(=O)c3cc(C4CC4)nc4c3cnn4C3CCCCC3)cc2C1=O

>  <HIPPO Pose ID>  (918) 
125953

>  <energy_score>  (918) 
-63.822585

>  <inchikey>  (918) 
LDNYEKQXAQUJAB-UHFFFAOYSA-N

>  <gnina_score_min>  (918) 
6.421

>  <gnina_score>  (918) 
6.49

>  <ref_mols>  (918) 
Z3559a

>  <HIPPO Compound ID>  (918) 
188128

>  <distance_score>  (918) 
0.51152

>  <rmsd(smina/fragmenstein)>  (918) 
0.508

>  <ref_pdb>  (918) 
Z3559a

>  <inspiration_score>  (918) 
None

$$$$
P125954
     RDKit          3D

 35 40  0  0  0  0  0  0  0  0999 V2000
  -10.6819   -1.7961   -7.0237 C   0  0  0  0  0  0  0  0  0  0  0  0
  -10.2394   -0.4030   -7.3764 O   0  0  0  0  0  0  0  0  0  0  0  0
  -10.3775    0.6689   -6.4088 C   0  0  0  0  0  0  0  0  0  0  0  0
   -9.2668    1.7139   -6.4411 C   0  0  0  0  0  0  0  0  0  0  0  0
   -9.2280    2.5409   -7.6132 N   0  0  0  0  0  0  0  0  0  0  0  0
   -9.0703    1.9137   -8.9082 C   0  0  0  0  0  0  0  0  0  0  0  0
   -8.6048    3.0443   -9.7507 C   0  0  0  0  0  0  0  0  0  0  0  0
   -8.3815    3.0773  -11.1100 C   0  0  0  0  0  0  0  0  0  0  0  0
   -7.9067    4.2658  -11.6645 C   0  0  0  0  0  0  0  0  0  0  0  0
   -7.6500    4.2828  -13.0281 N   0  0  0  0  0  0  0  0  0  0  0  0
   -7.2054    5.4342  -13.9477 C   0  0  0  0  0  0  0  0  0  0  0  0
   -6.9098    6.5333  -13.6941 O   0  0  0  0  0  0  0  0  0  0  0  0
   -7.1459    5.0025  -15.3588 C   0  0  0  0  0  0  0  0  0  0  0  0
   -8.1964    4.3190  -15.9882 C   0  0  0  0  0  0  0  0  0  0  0  0
   -8.1347    4.0854  -17.3639 C   0  0  0  0  0  0  0  0  0  0  0  0
   -9.2394    3.3660  -18.0970 C   0  0  0  0  0  0  0  0  0  0  0  0
  -10.6337    3.9201  -18.2304 C   0  0  0  0  0  0  0  0  0  0  0  0
   -9.6996    4.0129  -19.3847 C   0  0  0  0  0  0  0  0  0  0  0  0
   -7.1110    4.5223  -18.1362 N   0  0  0  0  0  0  0  0  0  0  0  0
   -6.1420    5.1831  -17.4925 C   0  0  0  0  0  0  0  0  0  0  0  0
   -6.0632    5.4229  -16.1375 C   0  0  0  0  0  0  0  0  0  0  0  0
   -4.8448    6.1129  -15.9759 C   0  0  0  0  0  0  0  0  0  0  0  0
   -4.2237    6.3478  -17.1384 N   0  0  0  0  0  0  0  0  0  0  0  0
   -5.0826    5.8440  -18.0604 N   0  0  0  0  0  0  0  0  0  0  0  0
   -4.9860    6.2095  -19.4732 C   0  0  0  0  0  0  0  0  0  0  0  0
   -4.4206    5.0737  -20.3274 C   0  0  0  0  0  0  0  0  0  0  0  0
   -4.3225    5.4440  -21.8060 C   0  0  0  0  0  0  0  0  0  0  0  0
   -3.5585    6.7449  -22.0192 C   0  0  0  0  0  0  0  0  0  0  0  0
   -4.1535    7.8806  -21.1942 C   0  0  0  0  0  0  0  0  0  0  0  0
   -4.2124    7.5203  -19.7118 C   0  0  0  0  0  0  0  0  0  0  0  0
   -7.6709    5.3971  -10.8585 C   0  0  0  0  0  0  0  0  0  0  0  0
   -7.9029    5.3543   -9.4822 C   0  0  0  0  0  0  0  0  0  0  0  0
   -8.3675    4.1656   -8.9624 C   0  0  0  0  0  0  0  0  0  0  0  0
   -8.6943    3.8194   -7.5786 C   0  0  0  0  0  0  0  0  0  0  0  0
   -8.5010    4.5489   -6.6223 O   0  0  0  0  0  0  0  0  0  0  0  0
  1  2  1  0
  2  3  1  0
  3  4  1  0
  4  5  1  0
  5  6  1  0
  6  7  1  0
  7  8  2  0
  8  9  1  0
  9 10  1  0
 10 11  1  0
 11 12  2  0
 11 13  1  0
 13 14  2  0
 14 15  1  0
 15 16  1  0
 16 17  1  0
 17 18  1  0
 15 19  2  0
 19 20  1  0
 20 21  2  0
 21 22  1  0
 22 23  2  0
 23 24  1  0
 24 25  1  0
 25 26  1  0
 26 27  1  0
 27 28  1  0
 28 29  1  0
 29 30  1  0
  9 31  2  0
 31 32  1  0
 32 33  2  0
 33 34  1  0
 34 35  2  0
 34  5  1  0
 33  7  1  0
 21 13  1  0
 30 25  1  0
 18 16  1  0
 24 20  1  0
M  END
>  <name>  (919) 
P125954

>  <alias>  (919) 
None

>  <smina_score_min>  (919) 
-8.188

>  <exports>  (919) 
['/opt/xchem-fragalysis-2/maxwin/BulkDock/OUTPUTS/openbind_xx01zvns2b_c2_elabs_1LOUTNY.sdf', '/opt/xchem-fragalysis-2/maxwin/BulkDock/OUTPUTS/openbind_xx01zvns2b_c2_elabs_1LSYIIV.sdf']

>  <tags>  (919) 
syndirella_placed,openbind_xx01zvns2b_c2_elabs,openbind_xx01zvns2b_c2_elabs_scored_6.2plus,syndirella_product,openbind_xx01zvns2b_c2_elabs_scored,openbind_xx01zvns2b_c2_elabs_scored_top80percent,BulkDock Fragalysis export

>  <subsites>  (919) 
1 - Z4590/B/203/1

>  <smiles>  (919) 
COCCN1Cc2cc(NC(=O)c3cc(C4CC4)nc4c3cnn4C3CCCCC3)ccc2C1=O

>  <HIPPO Pose ID>  (919) 
125954

>  <energy_score>  (919) 
-30.476761

>  <inchikey>  (919) 
BGZSKCJSICPYFZ-UHFFFAOYSA-N

>  <gnina_score_min>  (919) 
6.566

>  <gnina_score>  (919) 
6.682

>  <ref_mols>  (919) 
Z3559a

>  <HIPPO Compound ID>  (919) 
188130

>  <distance_score>  (919) 
0.678994

>  <rmsd(smina/fragmenstein)>  (919) 
2.036

>  <ref_pdb>  (919) 
Z3559a

>  <inspiration_score>  (919) 
None

$$$$
P125955
     RDKit          3D

 35 40  0  0  0  0  0  0  0  0999 V2000
   -6.2489    6.7044  -13.6369 O   0  0  0  0  0  0  0  0  0  0  0  0
   -6.8530    5.7552  -13.9335 C   0  0  0  0  0  0  0  0  0  0  0  0
   -7.7249    4.8252  -13.0819 N   0  0  0  0  0  0  0  0  0  0  0  0
   -7.9551    4.8086  -11.7245 C   0  0  0  0  0  0  0  0  0  0  0  0
   -7.3608    5.6599  -10.7882 C   0  0  0  0  0  0  0  0  0  0  0  0
   -7.5234    5.4104   -9.4159 C   0  0  0  0  0  0  0  0  0  0  0  0
   -8.3053    4.3339   -9.0413 C   0  0  0  0  0  0  0  0  0  0  0  0
   -9.0043    3.6024   -9.9879 C   0  0  0  0  0  0  0  0  0  0  0  0
   -8.8049    3.7927  -11.3255 C   0  0  0  0  0  0  0  0  0  0  0  0
   -9.7705    2.5134   -9.3413 C   0  0  0  0  0  0  0  0  0  0  0  0
   -9.0349    2.2808   -8.1055 N   0  0  0  0  0  0  0  0  0  0  0  0
   -8.0204    1.2753   -8.5243 C   0  0  0  0  0  0  0  0  0  0  0  0
   -6.8758    1.4808   -9.6028 C   0  0  0  0  0  0  0  0  0  0  0  0
   -6.0991    2.5702   -9.3987 F   0  0  0  0  0  0  0  0  0  0  0  0
   -7.3516    1.5961  -10.8722 F   0  0  0  0  0  0  0  0  0  0  0  0
   -6.0228    0.4163   -9.6571 F   0  0  0  0  0  0  0  0  0  0  0  0
   -8.4615    3.6143   -7.7410 C   0  0  0  0  0  0  0  0  0  0  0  0
   -6.8973    5.2929  -15.3432 C   0  0  0  0  0  0  0  0  0  0  0  0
   -8.0458    4.7167  -15.9092 C   0  0  0  0  0  0  0  0  0  0  0  0
   -8.0741    4.3446  -17.2533 C   0  0  0  0  0  0  0  0  0  0  0  0
   -9.3619    3.7701  -17.8082 C   0  0  0  0  0  0  0  0  0  0  0  0
   -9.3269    2.5955  -18.7504 C   0  0  0  0  0  0  0  0  0  0  0  0
   -9.7297    3.9496  -19.2548 C   0  0  0  0  0  0  0  0  0  0  0  0
   -7.0171    4.5473  -18.0756 N   0  0  0  0  0  0  0  0  0  0  0  0
   -5.9463    5.1290  -17.5011 C   0  0  0  0  0  0  0  0  0  0  0  0
   -5.8060    5.5054  -16.1780 C   0  0  0  0  0  0  0  0  0  0  0  0
   -4.5130    6.0551  -16.0923 C   0  0  0  0  0  0  0  0  0  0  0  0
   -3.8849    6.0753  -17.2714 N   0  0  0  0  0  0  0  0  0  0  0  0
   -4.7850    5.5215  -18.1181 N   0  0  0  0  0  0  0  0  0  0  0  0
   -4.5433    5.5068  -19.5530 C   0  0  0  0  0  0  0  0  0  0  0  0
   -5.0722    6.7950  -20.2067 C   0  0  0  0  0  0  0  0  0  0  0  0
   -4.5378    7.0198  -21.6251 C   0  0  0  0  0  0  0  0  0  0  0  0
   -4.0408    5.7332  -22.2737 C   0  0  0  0  0  0  0  0  0  0  0  0
   -2.9326    5.0688  -21.4513 C   0  0  0  0  0  0  0  0  0  0  0  0
   -3.0738    5.2956  -19.9424 C   0  0  0  0  0  0  0  0  0  0  0  0
  1  2  2  0
  2  3  1  0
  3  4  1  0
  4  5  2  0
  5  6  1  0
  6  7  2  0
  7  8  1  0
  8  9  2  0
  8 10  1  0
 10 11  1  0
 11 12  1  0
 12 13  1  0
 13 14  1  0
 13 15  1  0
 13 16  1  0
 11 17  1  0
  2 18  1  0
 18 19  2  0
 19 20  1  0
 20 21  1  0
 21 22  1  0
 22 23  1  0
 20 24  2  0
 24 25  1  0
 25 26  2  0
 26 27  1  0
 27 28  2  0
 28 29  1  0
 29 30  1  0
 30 31  1  0
 31 32  1  0
 32 33  1  0
 33 34  1  0
 34 35  1  0
  9  4  1  0
 26 18  1  0
 35 30  1  0
 17  7  1  0
 23 21  1  0
 29 25  1  0
M  END
>  <name>  (920) 
P125955

>  <alias>  (920) 
None

>  <smina_score_min>  (920) 
-7.907

>  <exports>  (920) 
['/opt/xchem-fragalysis-2/maxwin/BulkDock/OUTPUTS/openbind_xx01zvns2b_c2_elabs_1LOUTNY.sdf', '/opt/xchem-fragalysis-2/maxwin/BulkDock/OUTPUTS/openbind_xx01zvns2b_c2_elabs_1LSYIIV.sdf']

>  <tags>  (920) 
syndirella_placed,openbind_xx01zvns2b_c2_elabs,openbind_xx01zvns2b_c2_elabs_scored_6.2plus,syndirella_product,openbind_xx01zvns2b_c2_elabs_scored,openbind_xx01zvns2b_c2_elabs_scored_top80percent,BulkDock Fragalysis export

>  <subsites>  (920) 
1 - Z4590/B/203/1

>  <smiles>  (920) 
O=C(Nc1ccc2c(c1)CN(CC(F)(F)F)C2)c1cc(C2CC2)nc2c1cnn2C1CCCCC1

>  <HIPPO Pose ID>  (920) 
125955

>  <energy_score>  (920) 
-29.906511

>  <inchikey>  (920) 
ZQRWNHZCZIRSSN-UHFFFAOYSA-N

>  <gnina_score_min>  (920) 
6.624

>  <gnina_score>  (920) 
6.424

>  <ref_mols>  (920) 
Z3559a

>  <HIPPO Compound ID>  (920) 
188131

>  <distance_score>  (920) 
0.770935

>  <rmsd(smina/fragmenstein)>  (920) 
2.214

>  <ref_pdb>  (920) 
Z3559a

>  <inspiration_score>  (920) 
None

$$$$
P125956
     RDKit          3D

 35 40  0  0  0  0  0  0  0  0999 V2000
   -6.2298    5.0704   -3.5597 C   0  0  0  0  0  0  0  0  0  0  0  0
   -7.0813    4.0915   -4.1545 O   0  0  0  0  0  0  0  0  0  0  0  0
   -8.4425    4.5484   -4.1498 C   0  0  0  0  0  0  0  0  0  0  0  0
   -9.4342    3.4819   -4.6166 C   0  0  0  0  0  0  0  0  0  0  0  0
   -9.1124    2.6728   -5.8846 C   0  0  0  0  0  0  0  0  0  0  0  0
   -9.2969    3.3994   -7.1331 N   0  0  0  0  0  0  0  0  0  0  0  0
   -8.3698    4.5242   -7.2672 C   0  0  0  0  0  0  0  0  0  0  0  0
   -8.1494    4.6528   -8.7263 C   0  0  0  0  0  0  0  0  0  0  0  0
   -7.6134    5.7275   -9.3953 C   0  0  0  0  0  0  0  0  0  0  0  0
   -7.4918    5.6207  -10.7696 C   0  0  0  0  0  0  0  0  0  0  0  0
   -7.8923    4.4544  -11.4464 C   0  0  0  0  0  0  0  0  0  0  0  0
   -7.7411    4.4103  -12.8265 N   0  0  0  0  0  0  0  0  0  0  0  0
   -7.1573    5.4538  -13.8064 C   0  0  0  0  0  0  0  0  0  0  0  0
   -6.7831    6.5441  -13.6170 O   0  0  0  0  0  0  0  0  0  0  0  0
   -7.1360    4.9792  -15.1960 C   0  0  0  0  0  0  0  0  0  0  0  0
   -8.2611    4.4165  -15.7985 C   0  0  0  0  0  0  0  0  0  0  0  0
   -8.2664    4.1972  -17.1777 C   0  0  0  0  0  0  0  0  0  0  0  0
   -9.5441    3.7324  -17.8355 C   0  0  0  0  0  0  0  0  0  0  0  0
   -9.5373    2.4955  -18.6930 C   0  0  0  0  0  0  0  0  0  0  0  0
   -9.7230    3.8428  -19.3262 C   0  0  0  0  0  0  0  0  0  0  0  0
   -7.1979    4.4699  -17.9684 N   0  0  0  0  0  0  0  0  0  0  0  0
   -6.1407    5.0115  -17.3433 C   0  0  0  0  0  0  0  0  0  0  0  0
   -6.0338    5.2907  -15.9966 C   0  0  0  0  0  0  0  0  0  0  0  0
   -4.7686    5.8961  -15.8573 C   0  0  0  0  0  0  0  0  0  0  0  0
   -4.1184    6.0121  -17.0196 N   0  0  0  0  0  0  0  0  0  0  0  0
   -4.9776    5.4630  -17.9154 N   0  0  0  0  0  0  0  0  0  0  0  0
   -4.7051    5.5360  -19.3487 C   0  0  0  0  0  0  0  0  0  0  0  0
   -3.2302    5.2551  -19.7132 C   0  0  0  0  0  0  0  0  0  0  0  0
   -2.4510    6.5295  -20.0219 C   0  0  0  0  0  0  0  0  0  0  0  0
   -3.0709    7.3098  -21.1829 C   0  0  0  0  0  0  0  0  0  0  0  0
   -4.5933    7.1832  -21.2628 C   0  0  0  0  0  0  0  0  0  0  0  0
   -5.2048    6.8818  -19.9021 C   0  0  0  0  0  0  0  0  0  0  0  0
   -8.4304    3.3658  -10.7483 C   0  0  0  0  0  0  0  0  0  0  0  0
   -8.5600    3.4881   -9.3742 C   0  0  0  0  0  0  0  0  0  0  0  0
   -9.0998    2.5411   -8.3403 C   0  0  0  0  0  0  0  0  0  0  0  0
  1  2  1  0
  2  3  1  0
  3  4  1  0
  4  5  1  0
  5  6  1  0
  6  7  1  0
  7  8  1  0
  8  9  2  0
  9 10  1  0
 10 11  2  0
 11 12  1  0
 12 13  1  0
 13 14  2  0
 13 15  1  0
 15 16  2  0
 16 17  1  0
 17 18  1  0
 18 19  1  0
 19 20  1  0
 17 21  2  0
 21 22  1  0
 22 23  2  0
 23 24  1  0
 24 25  2  0
 25 26  1  0
 26 27  1  0
 27 28  1  0
 28 29  1  0
 29 30  1  0
 30 31  1  0
 31 32  1  0
 11 33  1  0
 33 34  2  0
 34 35  1  0
 35  6  1  0
 34  8  1  0
 23 15  1  0
 32 27  1  0
 20 18  1  0
 26 22  1  0
M  END
>  <name>  (921) 
P125956

>  <alias>  (921) 
None

>  <smina_score_min>  (921) 
-8.358

>  <exports>  (921) 
['/opt/xchem-fragalysis-2/maxwin/BulkDock/OUTPUTS/openbind_xx01zvns2b_c2_elabs_1LOUTNY.sdf', '/opt/xchem-fragalysis-2/maxwin/BulkDock/OUTPUTS/openbind_xx01zvns2b_c2_elabs_1LSYIIV.sdf']

>  <tags>  (921) 
syndirella_placed,openbind_xx01zvns2b_c2_elabs,openbind_xx01zvns2b_c2_elabs_scored_6.2plus,syndirella_product,openbind_xx01zvns2b_c2_elabs_scored,openbind_xx01zvns2b_c2_elabs_scored_top80percent,BulkDock Fragalysis export

>  <subsites>  (921) 
1 - Z4590/B/203/1

>  <smiles>  (921) 
COCCCN1Cc2ccc(NC(=O)c3cc(C4CC4)nc4c3cnn4C3CCCCC3)cc2C1

>  <HIPPO Pose ID>  (921) 
125956

>  <energy_score>  (921) 
-40.416891

>  <inchikey>  (921) 
RXUHEZZLSCWPNU-UHFFFAOYSA-N

>  <gnina_score_min>  (921) 
6.57

>  <gnina_score>  (921) 
6.55

>  <ref_mols>  (921) 
Z3559a

>  <HIPPO Compound ID>  (921) 
188132

>  <distance_score>  (921) 
0.59921

>  <rmsd(smina/fragmenstein)>  (921) 
0.7

>  <ref_pdb>  (921) 
Z3559a

>  <inspiration_score>  (921) 
None

$$$$
P125957
     RDKit          3D

 35 40  0  0  0  0  0  0  0  0999 V2000
  -10.1973   -3.4439   -7.5209 C   0  0  0  0  0  0  0  0  0  0  0  0
  -10.8414   -2.1010   -7.1855 C   0  0  0  0  0  0  0  0  0  0  0  0
  -10.2919   -0.8303   -7.6512 O   0  0  0  0  0  0  0  0  0  0  0  0
  -10.2375    0.3989   -6.8605 C   0  0  0  0  0  0  0  0  0  0  0  0
   -9.4879    1.4277   -7.6846 C   0  0  0  0  0  0  0  0  0  0  0  0
   -9.2957    2.7531   -6.9463 C   0  0  0  0  0  0  0  0  0  0  0  0
   -8.1937    3.6001   -7.4096 N   0  0  0  0  0  0  0  0  0  0  0  0
   -8.4865    5.0447   -7.4585 C   0  0  0  0  0  0  0  0  0  0  0  0
   -8.3677    5.4332   -8.9008 C   0  0  0  0  0  0  0  0  0  0  0  0
   -8.6137    6.6240   -9.5576 C   0  0  0  0  0  0  0  0  0  0  0  0
   -8.3980    6.6879  -10.9468 C   0  0  0  0  0  0  0  0  0  0  0  0
   -7.8665    5.5894  -11.6246 C   0  0  0  0  0  0  0  0  0  0  0  0
   -7.6210    5.5783  -12.9811 N   0  0  0  0  0  0  0  0  0  0  0  0
   -6.5288    4.8601  -13.7932 C   0  0  0  0  0  0  0  0  0  0  0  0
   -5.6179    4.2269  -13.4388 O   0  0  0  0  0  0  0  0  0  0  0  0
   -6.7834    4.9446  -15.2311 C   0  0  0  0  0  0  0  0  0  0  0  0
   -7.9769    4.4413  -15.7602 C   0  0  0  0  0  0  0  0  0  0  0  0
   -8.1403    4.3583  -17.1437 C   0  0  0  0  0  0  0  0  0  0  0  0
   -9.4408    3.8183  -17.7000 C   0  0  0  0  0  0  0  0  0  0  0  0
   -9.8236    4.0254  -19.1419 C   0  0  0  0  0  0  0  0  0  0  0  0
   -9.4106    2.6634  -18.6711 C   0  0  0  0  0  0  0  0  0  0  0  0
   -7.1794    4.7666  -18.0111 N   0  0  0  0  0  0  0  0  0  0  0  0
   -6.0417    5.2085  -17.4501 C   0  0  0  0  0  0  0  0  0  0  0  0
   -5.7723    5.3297  -16.1020 C   0  0  0  0  0  0  0  0  0  0  0  0
   -4.4536    5.8143  -16.0372 C   0  0  0  0  0  0  0  0  0  0  0  0
   -3.9280    6.0377  -17.2471 N   0  0  0  0  0  0  0  0  0  0  0  0
   -4.9035    5.6167  -18.0943 N   0  0  0  0  0  0  0  0  0  0  0  0
   -4.7156    5.6731  -19.5337 C   0  0  0  0  0  0  0  0  0  0  0  0
   -3.3037    5.2743  -20.0034 C   0  0  0  0  0  0  0  0  0  0  0  0
   -2.6370    6.5795  -20.4130 C   0  0  0  0  0  0  0  0  0  0  0  0
   -3.7820    7.3732  -21.0149 C   0  0  0  0  0  0  0  0  0  0  0  0
   -4.9479    7.0929  -20.0762 C   0  0  0  0  0  0  0  0  0  0  0  0
   -7.5911    4.4098  -10.9522 C   0  0  0  0  0  0  0  0  0  0  0  0
   -7.8786    4.3554   -9.6125 C   0  0  0  0  0  0  0  0  0  0  0  0
   -7.5897    3.2337   -8.7059 C   0  0  0  0  0  0  0  0  0  0  0  0
  1  2  1  0
  2  3  1  0
  3  4  1  0
  4  5  1  0
  5  6  1  0
  6  7  1  0
  7  8  1  0
  8  9  1  0
  9 10  2  0
 10 11  1  0
 11 12  2  0
 12 13  1  0
 13 14  1  0
 14 15  2  0
 14 16  1  0
 16 17  2  0
 17 18  1  0
 18 19  1  0
 19 20  1  0
 20 21  1  0
 18 22  2  0
 22 23  1  0
 23 24  2  0
 24 25  1  0
 25 26  2  0
 26 27  1  0
 27 28  1  0
 28 29  1  0
 29 30  1  0
 30 31  1  0
 31 32  1  0
 12 33  1  0
 33 34  2  0
 34 35  1  0
 35  7  1  0
 34  9  1  0
 24 16  1  0
 32 28  1  0
 21 19  1  0
 27 23  1  0
M  END
>  <name>  (922) 
P125957

>  <alias>  (922) 
None

>  <smina_score_min>  (922) 
-7.107

>  <exports>  (922) 
['/opt/xchem-fragalysis-2/maxwin/BulkDock/OUTPUTS/openbind_xx01zvns2b_c2_elabs_1LOUTNY.sdf', '/opt/xchem-fragalysis-2/maxwin/BulkDock/OUTPUTS/openbind_xx01zvns2b_c2_elabs_1LSYIIV.sdf']

>  <tags>  (922) 
syndirella_placed,openbind_xx01zvns2b_c2_elabs,openbind_xx01zvns2b_c2_elabs_scored_6.2plus,syndirella_product,openbind_xx01zvns2b_c2_elabs_scored,openbind_xx01zvns2b_c2_elabs_scored_top80percent,BulkDock Fragalysis export

>  <subsites>  (922) 
1 - Z4590/B/203/1

>  <smiles>  (922) 
CCOCCCN1Cc2ccc(NC(=O)c3cc(C4CC4)nc4c3cnn4C3CCCC3)cc2C1

>  <HIPPO Pose ID>  (922) 
125957

>  <energy_score>  (922) 
-25.372216

>  <inchikey>  (922) 
QDBVRMAEQTUYGE-UHFFFAOYSA-N

>  <gnina_score_min>  (922) 
6.323

>  <gnina_score>  (922) 
6.502

>  <ref_mols>  (922) 
Z3559a

>  <HIPPO Compound ID>  (922) 
188134

>  <distance_score>  (922) 
1.172597

>  <rmsd(smina/fragmenstein)>  (922) 
2.822

>  <ref_pdb>  (922) 
Z3559a

>  <inspiration_score>  (922) 
None

$$$$
P125958
     RDKit          3D

 35 41  0  0  0  0  0  0  0  0999 V2000
   -7.3608    6.7359  -13.6646 O   0  0  0  0  0  0  0  0  0  0  0  0
   -7.4203    5.5675  -13.6986 C   0  0  0  0  0  0  0  0  0  0  0  0
   -7.7360    4.5441  -12.5767 N   0  0  0  0  0  0  0  0  0  0  0  0
   -7.9431    4.7337  -11.2075 C   0  0  0  0  0  0  0  0  0  0  0  0
   -7.8254    6.0601  -10.7549 C   0  0  0  0  0  0  0  0  0  0  0  0
   -8.0543    6.3999   -9.4406 C   0  0  0  0  0  0  0  0  0  0  0  0
   -8.4000    5.3885   -8.5787 C   0  0  0  0  0  0  0  0  0  0  0  0
   -8.4904    4.0485   -8.9656 C   0  0  0  0  0  0  0  0  0  0  0  0
   -8.2640    3.7012  -10.3036 C   0  0  0  0  0  0  0  0  0  0  0  0
   -8.8758    3.2274   -7.7505 C   0  0  0  0  0  0  0  0  0  0  0  0
   -9.1666    4.2631   -6.7031 N   0  0  0  0  0  0  0  0  0  0  0  0
   -8.7898    4.1129   -5.3641 C   0  0  0  0  0  0  0  0  0  0  0  0
   -7.4732    4.3282   -4.9304 C   0  0  0  0  0  0  0  0  0  0  0  0
   -7.1646    4.5167   -3.5801 C   0  0  0  0  0  0  0  0  0  0  0  0
   -8.1805    4.4881   -2.6329 C   0  0  0  0  0  0  0  0  0  0  0  0
   -9.4903    4.2580   -3.0409 C   0  0  0  0  0  0  0  0  0  0  0  0
   -9.7886    4.0496   -4.3925 C   0  0  0  0  0  0  0  0  0  0  0  0
   -8.7452    5.5935   -7.1559 C   0  0  0  0  0  0  0  0  0  0  0  0
   -7.1684    4.9877  -15.0217 C   0  0  0  0  0  0  0  0  0  0  0  0
   -8.1436    4.2851  -15.7178 C   0  0  0  0  0  0  0  0  0  0  0  0
   -7.9576    4.0364  -17.0818 C   0  0  0  0  0  0  0  0  0  0  0  0
   -8.9707    3.1826  -17.8005 C   0  0  0  0  0  0  0  0  0  0  0  0
  -10.0482    3.7827  -18.6652 C   0  0  0  0  0  0  0  0  0  0  0  0
   -8.9133    3.0318  -19.2949 C   0  0  0  0  0  0  0  0  0  0  0  0
   -6.8882    4.4975  -17.7892 N   0  0  0  0  0  0  0  0  0  0  0  0
   -5.9775    5.1841  -17.0776 C   0  0  0  0  0  0  0  0  0  0  0  0
   -6.0313    5.4212  -15.7151 C   0  0  0  0  0  0  0  0  0  0  0  0
   -4.8667    6.1553  -15.4289 C   0  0  0  0  0  0  0  0  0  0  0  0
   -4.1275    6.3891  -16.5128 N   0  0  0  0  0  0  0  0  0  0  0  0
   -4.8632    5.8575  -17.5261 N   0  0  0  0  0  0  0  0  0  0  0  0
   -4.4397    6.2014  -18.8711 C   0  0  0  0  0  0  0  0  0  0  0  0
   -3.2377    5.3742  -19.3470 C   0  0  0  0  0  0  0  0  0  0  0  0
   -3.5222    5.0510  -20.8080 C   0  0  0  0  0  0  0  0  0  0  0  0
   -5.0383    4.9872  -20.8807 C   0  0  0  0  0  0  0  0  0  0  0  0
   -5.4758    6.1455  -19.9979 C   0  0  0  0  0  0  0  0  0  0  0  0
  1  2  2  0
  2  3  1  0
  3  4  1  0
  4  5  2  0
  5  6  1  0
  6  7  2  0
  7  8  1  0
  8  9  2  0
  8 10  1  0
 10 11  1  0
 11 12  1  0
 12 13  2  0
 13 14  1  0
 14 15  2  0
 15 16  1  0
 16 17  2  0
 11 18  1  0
  2 19  1  0
 19 20  2  0
 20 21  1  0
 21 22  1  0
 22 23  1  0
 23 24  1  0
 21 25  2  0
 25 26  1  0
 26 27  2  0
 27 28  1  0
 28 29  2  0
 29 30  1  0
 30 31  1  0
 31 32  1  0
 32 33  1  0
 33 34  1  0
 34 35  1  0
  9  4  1  0
 17 12  1  0
 27 19  1  0
 35 31  1  0
 18  7  1  0
 24 22  1  0
 30 26  1  0
M  END
>  <name>  (923) 
P125958

>  <alias>  (923) 
None

>  <smina_score_min>  (923) 
-9.806

>  <exports>  (923) 
['/opt/xchem-fragalysis-2/maxwin/BulkDock/OUTPUTS/openbind_xx01zvns2b_c2_elabs_1LOUTNY.sdf', '/opt/xchem-fragalysis-2/maxwin/BulkDock/OUTPUTS/openbind_xx01zvns2b_c2_elabs_1LSYIIV.sdf']

>  <tags>  (923) 
syndirella_placed,openbind_xx01zvns2b_c2_elabs,openbind_xx01zvns2b_c2_elabs_scored_6.2plus,syndirella_product,openbind_xx01zvns2b_c2_elabs_scored,openbind_xx01zvns2b_c2_elabs_scored_top80percent,BulkDock Fragalysis export

>  <subsites>  (923) 
1 - Z4590/B/203/1

>  <smiles>  (923) 
O=C(Nc1ccc2c(c1)CN(c1ccccc1)C2)c1cc(C2CC2)nc2c1cnn2C1CCCC1

>  <HIPPO Pose ID>  (923) 
125958

>  <energy_score>  (923) 
-21.025717

>  <inchikey>  (923) 
QHCUZPQQMMMADP-UHFFFAOYSA-N

>  <gnina_score_min>  (923) 
6.414

>  <gnina_score>  (923) 
6.397

>  <ref_mols>  (923) 
Z3559a

>  <HIPPO Compound ID>  (923) 
188135

>  <distance_score>  (923) 
1.022381

>  <rmsd(smina/fragmenstein)>  (923) 
0.694

>  <ref_pdb>  (923) 
Z3559a

>  <inspiration_score>  (923) 
None

$$$$
P125959
     RDKit          3D

 35 41  0  0  0  0  0  0  0  0999 V2000
   -6.5191    6.3984  -13.5124 O   0  0  0  0  0  0  0  0  0  0  0  0
   -7.0747    5.4039  -13.7691 C   0  0  0  0  0  0  0  0  0  0  0  0
   -7.7791    4.3843  -12.8477 N   0  0  0  0  0  0  0  0  0  0  0  0
   -7.8624    4.3275  -11.4631 C   0  0  0  0  0  0  0  0  0  0  0  0
   -7.2125    5.3353  -10.7132 C   0  0  0  0  0  0  0  0  0  0  0  0
   -7.1749    5.2948   -9.3275 C   0  0  0  0  0  0  0  0  0  0  0  0
   -7.8328    4.2475   -8.7356 C   0  0  0  0  0  0  0  0  0  0  0  0
   -8.5300    3.2890   -9.4500 C   0  0  0  0  0  0  0  0  0  0  0  0
   -8.5421    3.2830  -10.8313 C   0  0  0  0  0  0  0  0  0  0  0  0
   -9.2106    2.4422   -8.4697 C   0  0  0  0  0  0  0  0  0  0  0  0
   -9.9230    1.5041   -8.7618 O   0  0  0  0  0  0  0  0  0  0  0  0
   -8.8948    2.9617   -7.2446 N   0  0  0  0  0  0  0  0  0  0  0  0
   -9.3611    2.4700   -5.9847 C   0  0  0  0  0  0  0  0  0  0  0  0
  -10.4206    3.3758   -5.4189 C   0  0  0  0  0  0  0  0  0  0  0  0
  -10.1600    4.0584   -4.0965 C   0  0  0  0  0  0  0  0  0  0  0  0
  -10.2872    4.8865   -5.3351 C   0  0  0  0  0  0  0  0  0  0  0  0
   -7.9644    3.9531   -7.3262 C   0  0  0  0  0  0  0  0  0  0  0  0
   -7.3193    4.5163   -6.4567 O   0  0  0  0  0  0  0  0  0  0  0  0
   -7.0799    4.9987  -15.1866 C   0  0  0  0  0  0  0  0  0  0  0  0
   -8.1955    4.4625  -15.8233 C   0  0  0  0  0  0  0  0  0  0  0  0
   -8.1775    4.2863  -17.2098 C   0  0  0  0  0  0  0  0  0  0  0  0
   -9.4494    3.8129  -17.8838 C   0  0  0  0  0  0  0  0  0  0  0  0
   -9.5865    3.8527  -19.3815 C   0  0  0  0  0  0  0  0  0  0  0  0
   -9.4546    2.5349  -18.6798 C   0  0  0  0  0  0  0  0  0  0  0  0
   -7.1023    4.6077  -17.9820 N   0  0  0  0  0  0  0  0  0  0  0  0
   -6.0333    5.0939  -17.3245 C   0  0  0  0  0  0  0  0  0  0  0  0
   -5.9543    5.3040  -15.9600 C   0  0  0  0  0  0  0  0  0  0  0  0
   -4.6726    5.8447  -15.7488 C   0  0  0  0  0  0  0  0  0  0  0  0
   -3.9828    5.9895  -16.8786 N   0  0  0  0  0  0  0  0  0  0  0  0
   -4.8292    5.5274  -17.8383 N   0  0  0  0  0  0  0  0  0  0  0  0
   -4.4353    5.7459  -19.2144 C   0  0  0  0  0  0  0  0  0  0  0  0
   -2.9619    5.4270  -19.5038 C   0  0  0  0  0  0  0  0  0  0  0  0
   -2.8950    5.4165  -21.0215 C   0  0  0  0  0  0  0  0  0  0  0  0
   -4.1962    4.7586  -21.4522 C   0  0  0  0  0  0  0  0  0  0  0  0
   -5.1878    4.9963  -20.3127 C   0  0  0  0  0  0  0  0  0  0  0  0
  1  2  2  0
  2  3  1  0
  3  4  1  0
  4  5  2  0
  5  6  1  0
  6  7  2  0
  7  8  1  0
  8  9  2  0
  8 10  1  0
 10 11  2  0
 10 12  1  0
 12 13  1  0
 13 14  1  0
 14 15  1  0
 15 16  1  0
 12 17  1  0
 17 18  2  0
  2 19  1  0
 19 20  2  0
 20 21  1  0
 21 22  1  0
 22 23  1  0
 23 24  1  0
 21 25  2  0
 25 26  1  0
 26 27  2  0
 27 28  1  0
 28 29  2  0
 29 30  1  0
 30 31  1  0
 31 32  1  0
 32 33  1  0
 33 34  1  0
 34 35  1  0
  9  4  1  0
 16 14  1  0
 27 19  1  0
 35 31  1  0
 17  7  1  0
 24 22  1  0
 30 26  1  0
M  END
>  <name>  (924) 
P125959

>  <alias>  (924) 
None

>  <smina_score_min>  (924) 
-9.09

>  <exports>  (924) 
['/opt/xchem-fragalysis-2/maxwin/BulkDock/OUTPUTS/openbind_xx01zvns2b_c2_elabs_1LOUTNY.sdf', '/opt/xchem-fragalysis-2/maxwin/BulkDock/OUTPUTS/openbind_xx01zvns2b_c2_elabs_1LSYIIV.sdf']

>  <tags>  (924) 
syndirella_placed,openbind_xx01zvns2b_c2_elabs,openbind_xx01zvns2b_c2_elabs_scored_6.2plus,syndirella_product,openbind_xx01zvns2b_c2_elabs_scored,openbind_xx01zvns2b_c2_elabs_scored_top80percent,BulkDock Fragalysis export

>  <subsites>  (924) 
1 - Z4590/B/203/1

>  <smiles>  (924) 
O=C(Nc1ccc2c(c1)C(=O)N(CC1CC1)C2=O)c1cc(C2CC2)nc2c1cnn2C1CCCC1

>  <HIPPO Pose ID>  (924) 
125959

>  <energy_score>  (924) 
-40.334414

>  <inchikey>  (924) 
HIENCFWQBWWSOB-UHFFFAOYSA-N

>  <gnina_score_min>  (924) 
6.357

>  <gnina_score>  (924) 
6.506

>  <ref_mols>  (924) 
Z3559a

>  <HIPPO Compound ID>  (924) 
188137

>  <distance_score>  (924) 
0.570536

>  <rmsd(smina/fragmenstein)>  (924) 
0.57

>  <ref_pdb>  (924) 
Z3559a

>  <inspiration_score>  (924) 
None

$$$$
P125962
     RDKit          3D

 35 41  0  0  0  0  0  0  0  0999 V2000
   -5.3856    7.0876  -19.7818 C   0  0  0  0  0  0  0  0  0  0  0  0
   -4.7743    5.7289  -19.4315 C   0  0  1  0  0  0  0  0  0  0  0  0
   -3.3237    5.6643  -19.8916 C   0  0  0  0  0  0  0  0  0  0  0  0
   -2.8552    4.5964  -20.8545 C   0  0  0  0  0  0  0  0  0  0  0  0
   -2.9319    6.0171  -21.3146 C   0  0  0  0  0  0  0  0  0  0  0  0
   -4.9422    5.5052  -17.9829 N   0  0  0  0  0  0  0  0  0  0  0  0
   -4.0508    6.0190  -17.0914 N   0  0  0  0  0  0  0  0  0  0  0  0
   -4.6512    5.8459  -15.9107 C   0  0  0  0  0  0  0  0  0  0  0  0
   -5.9230    5.2517  -16.0244 C   0  0  0  0  0  0  0  0  0  0  0  0
   -6.9889    4.9078  -15.1871 C   0  0  0  0  0  0  0  0  0  0  0  0
   -6.9366    5.3037  -13.7684 C   0  0  0  0  0  0  0  0  0  0  0  0
   -6.5329    6.3749  -13.5346 O   0  0  0  0  0  0  0  0  0  0  0  0
   -7.4760    4.2062  -12.8203 N   0  0  0  0  0  0  0  0  0  0  0  0
   -7.7106    4.2321  -11.4488 C   0  0  0  0  0  0  0  0  0  0  0  0
   -7.3805    5.4013  -10.7294 C   0  0  0  0  0  0  0  0  0  0  0  0
   -7.6629    5.5164   -9.3753 C   0  0  0  0  0  0  0  0  0  0  0  0
   -8.2491    4.4271   -8.7746 C   0  0  0  0  0  0  0  0  0  0  0  0
   -8.5463    3.2633   -9.4484 C   0  0  0  0  0  0  0  0  0  0  0  0
   -8.2986    3.1350  -10.8046 C   0  0  0  0  0  0  0  0  0  0  0  0
   -9.2603    2.4081   -8.5001 C   0  0  0  0  0  0  0  0  0  0  0  0
   -9.8385    1.3923   -8.8354 O   0  0  0  0  0  0  0  0  0  0  0  0
   -9.2742    3.0657   -7.2853 N   0  0  0  0  0  0  0  0  0  0  0  0
  -10.2287    2.6717   -6.2733 C   0  0  0  0  0  0  0  0  0  0  0  0
   -9.8822    2.9279   -4.8452 C   0  0  0  0  0  0  0  0  0  0  0  0
  -10.0624    4.2854   -4.2085 C   0  0  0  0  0  0  0  0  0  0  0  0
   -8.6922    3.6804   -4.2923 C   0  0  0  0  0  0  0  0  0  0  0  0
   -8.8198    4.3411   -7.4487 C   0  0  0  0  0  0  0  0  0  0  0  0
   -8.9404    5.3463   -6.7709 O   0  0  0  0  0  0  0  0  0  0  0  0
   -8.1410    4.3750  -15.7684 C   0  0  0  0  0  0  0  0  0  0  0  0
   -8.2034    4.2075  -17.1555 C   0  0  0  0  0  0  0  0  0  0  0  0
   -9.5007    3.7421  -17.7780 C   0  0  0  0  0  0  0  0  0  0  0  0
   -9.5038    2.5360  -18.6810 C   0  0  0  0  0  0  0  0  0  0  0  0
   -9.7501    3.8992  -19.2551 C   0  0  0  0  0  0  0  0  0  0  0  0
   -7.1703    4.5178  -17.9800 N   0  0  0  0  0  0  0  0  0  0  0  0
   -6.0837    5.0279  -17.3780 C   0  0  0  0  0  0  0  0  0  0  0  0
  2  1  1  1
  2  3  1  0
  3  4  1  0
  4  5  1  0
  2  6  1  0
  6  7  1  0
  7  8  2  0
  8  9  1  0
  9 10  2  0
 10 11  1  0
 11 12  2  0
 11 13  1  0
 13 14  1  0
 14 15  2  0
 15 16  1  0
 16 17  2  0
 17 18  1  0
 18 19  2  0
 18 20  1  0
 20 21  2  0
 20 22  1  0
 22 23  1  0
 23 24  1  0
 24 25  1  0
 25 26  1  0
 22 27  1  0
 27 28  2  0
 10 29  1  0
 29 30  2  0
 30 31  1  0
 31 32  1  0
 32 33  1  0
 30 34  1  0
 34 35  2  0
  5  3  1  0
 35  6  1  0
 35  9  1  0
 19 14  1  0
 26 24  1  0
 33 31  1  0
 27 17  1  0
M  END
>  <name>  (925) 
P125962

>  <alias>  (925) 
None

>  <smina_score_min>  (925) 
-9.013

>  <exports>  (925) 
['/opt/xchem-fragalysis-2/maxwin/BulkDock/OUTPUTS/openbind_xx01zvns2b_c2_elabs_1LOUTNY.sdf', '/opt/xchem-fragalysis-2/maxwin/BulkDock/OUTPUTS/openbind_xx01zvns2b_c2_elabs_1LSYIIV.sdf']

>  <tags>  (925) 
syndirella_placed,openbind_xx01zvns2b_c2_elabs,openbind_xx01zvns2b_c2_elabs_scored_6.2plus,syndirella_product,openbind_xx01zvns2b_c2_elabs_scored,openbind_xx01zvns2b_c2_elabs_scored_top80percent,BulkDock Fragalysis export

>  <subsites>  (925) 
1 - Z4590/B/203/1

>  <smiles>  (925) 
C[C@@H](C1CC1)n1ncc2c(C(=O)Nc3ccc4c(c3)C(=O)N(CC3CC3)C4=O)cc(C3CC3)nc21

>  <HIPPO Pose ID>  (925) 
125962

>  <energy_score>  (925) 
-61.128666

>  <inchikey>  (925) 
VDWUUYPVUVDQCL-AWEZNQCLSA-N

>  <gnina_score_min>  (925) 
6.302

>  <gnina_score>  (925) 
6.521

>  <ref_mols>  (925) 
Z3559a

>  <HIPPO Compound ID>  (925) 
183035

>  <distance_score>  (925) 
0.538969

>  <rmsd(smina/fragmenstein)>  (925) 
0.795

>  <ref_pdb>  (925) 
Z3559a

>  <inspiration_score>  (925) 
None

$$$$
P125963
     RDKit          3D

 35 40  0  0  0  0  0  0  0  0999 V2000
   -8.1589    5.5055   -3.6550 C   0  0  0  0  0  0  0  0  0  0  0  0
   -8.7798    4.7629   -4.6943 O   0  0  0  0  0  0  0  0  0  0  0  0
   -9.5681    3.6932   -4.1796 C   0  0  0  0  0  0  0  0  0  0  0  0
  -10.3501    2.9561   -5.2680 C   0  0  0  0  0  0  0  0  0  0  0  0
   -9.4993    2.2123   -6.3125 C   0  0  0  0  0  0  0  0  0  0  0  0
   -9.4664    2.9328   -7.5714 N   0  0  0  0  0  0  0  0  0  0  0  0
   -8.6205    4.1323   -7.5384 C   0  0  0  0  0  0  0  0  0  0  0  0
   -8.3097    4.3644   -8.9771 C   0  0  0  0  0  0  0  0  0  0  0  0
   -7.8878    5.5238   -9.5871 C   0  0  0  0  0  0  0  0  0  0  0  0
   -7.7361    5.5023  -10.9698 C   0  0  0  0  0  0  0  0  0  0  0  0
   -7.9835    4.3329  -11.7158 C   0  0  0  0  0  0  0  0  0  0  0  0
   -7.8144    4.3594  -13.1005 N   0  0  0  0  0  0  0  0  0  0  0  0
   -7.3211    5.4892  -14.0284 C   0  0  0  0  0  0  0  0  0  0  0  0
   -7.0514    6.6002  -13.7911 O   0  0  0  0  0  0  0  0  0  0  0  0
   -7.1084    5.0422  -15.4170 C   0  0  0  0  0  0  0  0  0  0  0  0
   -8.1149    4.4722  -16.2093 C   0  0  0  0  0  0  0  0  0  0  0  0
   -7.8937    4.3031  -17.5880 C   0  0  0  0  0  0  0  0  0  0  0  0
   -8.9211    3.8010  -18.5695 C   0  0  0  0  0  0  0  0  0  0  0  0
   -9.5184    2.4425  -18.3642 C   0  0  0  0  0  0  0  0  0  0  0  0
  -10.3842    3.6757  -18.2944 C   0  0  0  0  0  0  0  0  0  0  0  0
   -6.7269    4.6356  -18.1828 N   0  0  0  0  0  0  0  0  0  0  0  0
   -5.8036    5.1736  -17.3840 C   0  0  0  0  0  0  0  0  0  0  0  0
   -5.9011    5.3942  -16.0297 C   0  0  0  0  0  0  0  0  0  0  0  0
   -4.6719    5.9950  -15.6885 C   0  0  0  0  0  0  0  0  0  0  0  0
   -3.8574    6.1453  -16.7399 N   0  0  0  0  0  0  0  0  0  0  0  0
   -4.5920    5.6729  -17.7774 N   0  0  0  0  0  0  0  0  0  0  0  0
   -4.1836    5.7722  -19.1757 C   0  0  0  0  0  0  0  0  0  0  0  0
   -2.8647    6.4577  -19.3926 C   0  0  0  0  0  0  0  0  0  0  0  0
   -2.6988    7.8800  -19.5137 C   0  0  0  0  0  0  0  0  0  0  0  0
   -1.3885    8.2483  -19.7205 C   0  0  0  0  0  0  0  0  0  0  0  0
   -0.3461    6.8976  -19.7802 S   0  0  0  0  0  0  0  0  0  0  0  0
   -1.6454    5.8147  -19.5209 C   0  0  0  0  0  0  0  0  0  0  0  0
   -8.3865    3.1561  -11.0747 C   0  0  0  0  0  0  0  0  0  0  0  0
   -8.5569    3.1938   -9.6997 C   0  0  0  0  0  0  0  0  0  0  0  0
   -9.0353    2.1404   -8.7408 C   0  0  0  0  0  0  0  0  0  0  0  0
  1  2  1  0
  2  3  1  0
  3  4  1  0
  4  5  1  0
  5  6  1  0
  6  7  1  0
  7  8  1  0
  8  9  2  0
  9 10  1  0
 10 11  2  0
 11 12  1  0
 12 13  1  0
 13 14  2  0
 13 15  1  0
 15 16  2  0
 16 17  1  0
 17 18  1  0
 18 19  1  0
 19 20  1  0
 17 21  2  0
 21 22  1  0
 22 23  2  0
 23 24  1  0
 24 25  2  0
 25 26  1  0
 26 27  1  0
 27 28  1  0
 28 29  1  0
 29 30  2  0
 30 31  1  0
 31 32  1  0
 11 33  1  0
 33 34  2  0
 34 35  1  0
 35  6  1  0
 34  8  1  0
 23 15  1  0
 32 28  2  0
 20 18  1  0
 26 22  1  0
M  END
>  <name>  (926) 
P125963

>  <alias>  (926) 
None

>  <smina_score_min>  (926) 
-8.648

>  <exports>  (926) 
['/opt/xchem-fragalysis-2/maxwin/BulkDock/OUTPUTS/openbind_xx01zvns2b_c2_elabs_1LOUTNY.sdf', '/opt/xchem-fragalysis-2/maxwin/BulkDock/OUTPUTS/openbind_xx01zvns2b_c2_elabs_1LSYIIV.sdf']

>  <tags>  (926) 
syndirella_placed,openbind_xx01zvns2b_c2_elabs,openbind_xx01zvns2b_c2_elabs_scored_6.2plus,syndirella_product,openbind_xx01zvns2b_c2_elabs_scored,openbind_xx01zvns2b_c2_elabs_scored_top80percent,BulkDock Fragalysis export

>  <subsites>  (926) 
1 - Z4590/B/203/1

>  <smiles>  (926) 
COCCCN1Cc2ccc(NC(=O)c3cc(C4CC4)nc4c3cnn4Cc3ccsc3)cc2C1

>  <HIPPO Pose ID>  (926) 
125963

>  <energy_score>  (926) 
-55.751592

>  <inchikey>  (926) 
MXOVWARODVNQJA-UHFFFAOYSA-N

>  <gnina_score_min>  (926) 
6.689

>  <gnina_score>  (926) 
6.61

>  <ref_mols>  (926) 
Z3559a

>  <HIPPO Compound ID>  (926) 
188138

>  <distance_score>  (926) 
0.727179

>  <rmsd(smina/fragmenstein)>  (926) 
0.464

>  <ref_pdb>  (926) 
Z3559a

>  <inspiration_score>  (926) 
None

$$$$
P125967
     RDKit          3D

 35 40  0  0  0  0  0  0  0  0999 V2000
   -6.4717    5.9229   -1.4130 C   0  0  0  0  0  0  0  0  0  0  0  0
   -7.9442    5.5072   -1.4699 C   0  0  0  0  0  0  0  0  0  0  0  0
   -8.2450    4.4237   -0.4320 C   0  0  0  0  0  0  0  0  0  0  0  0
   -8.3734    5.0581   -2.8530 C   0  0  0  0  0  0  0  0  0  0  0  0
   -9.5097    5.6031   -3.4397 C   0  0  0  0  0  0  0  0  0  0  0  0
   -9.8966    5.2186   -4.7283 C   0  0  0  0  0  0  0  0  0  0  0  0
   -9.1684    4.2743   -5.4738 C   0  0  0  0  0  0  0  0  0  0  0  0
   -9.3049    4.2980   -6.8688 N   0  0  0  0  0  0  0  0  0  0  0  0
   -8.6031    5.5361   -7.2558 C   0  0  0  0  0  0  0  0  0  0  0  0
   -8.2678    5.3184   -8.6721 C   0  0  0  0  0  0  0  0  0  0  0  0
   -7.8217    6.3103   -9.5086 C   0  0  0  0  0  0  0  0  0  0  0  0
   -7.5763    5.9617  -10.8127 C   0  0  0  0  0  0  0  0  0  0  0  0
   -7.7680    4.6467  -11.2716 C   0  0  0  0  0  0  0  0  0  0  0  0
   -7.4895    4.4554  -12.6256 N   0  0  0  0  0  0  0  0  0  0  0  0
   -7.2531    5.4865  -13.7607 C   0  0  0  0  0  0  0  0  0  0  0  0
   -7.1791    6.6536  -13.7217 O   0  0  0  0  0  0  0  0  0  0  0  0
   -7.0888    4.9107  -15.0922 C   0  0  0  0  0  0  0  0  0  0  0  0
   -8.1351    4.2379  -15.7114 C   0  0  0  0  0  0  0  0  0  0  0  0
   -8.0740    4.0309  -17.0950 C   0  0  0  0  0  0  0  0  0  0  0  0
   -9.1056    3.1804  -17.7713 C   0  0  0  0  0  0  0  0  0  0  0  0
  -10.2287    3.7733  -18.5804 C   0  0  0  0  0  0  0  0  0  0  0  0
   -9.1046    3.0591  -19.2685 C   0  0  0  0  0  0  0  0  0  0  0  0
   -7.0745    4.5565  -17.8579 N   0  0  0  0  0  0  0  0  0  0  0  0
   -6.1046    5.2350  -17.2399 C   0  0  0  0  0  0  0  0  0  0  0  0
   -6.0427    5.3474  -15.8707 C   0  0  0  0  0  0  0  0  0  0  0  0
   -4.7947    6.0474  -15.5857 C   0  0  0  0  0  0  0  0  0  0  0  0
   -4.3444    6.3411  -14.4967 O   0  0  0  0  0  0  0  0  0  0  0  0
   -4.1894    6.2844  -16.8117 N   0  0  0  0  0  0  0  0  0  0  0  0
   -5.0967    6.0180  -17.8628 N   0  0  0  0  0  0  0  0  0  0  0  0
   -4.5679    5.4614  -19.0899 C   0  0  0  0  0  0  0  0  0  0  0  0
   -8.1985    3.6323  -10.3895 C   0  0  0  0  0  0  0  0  0  0  0  0
   -8.4583    3.9907   -9.0628 C   0  0  0  0  0  0  0  0  0  0  0  0
   -8.9553    3.2112   -7.8537 C   0  0  0  0  0  0  0  0  0  0  0  0
   -8.1109    3.6487   -4.8381 C   0  0  0  0  0  0  0  0  0  0  0  0
   -7.6771    4.0902   -3.5793 C   0  0  0  0  0  0  0  0  0  0  0  0
  1  2  1  0
  2  3  1  0
  2  4  1  0
  4  5  2  0
  5  6  1  0
  6  7  2  0
  7  8  1  0
  8  9  1  0
  9 10  1  0
 10 11  2  0
 11 12  1  0
 12 13  2  0
 13 14  1  0
 14 15  1  0
 15 16  2  0
 15 17  1  0
 17 18  2  0
 18 19  1  0
 19 20  1  0
 20 21  1  0
 21 22  1  0
 19 23  2  0
 23 24  1  0
 24 25  2  0
 25 26  1  0
 26 27  2  0
 26 28  1  0
 28 29  1  0
 29 30  1  0
 13 31  1  0
 31 32  2  0
 32 33  1  0
  7 34  1  0
 34 35  2  0
 35  4  1  0
 33  8  1  0
 32 10  1  0
 25 17  1  0
 22 20  1  0
 29 24  1  0
M  END
>  <name>  (927) 
P125967

>  <alias>  (927) 
None

>  <smina_score_min>  (927) 
-9.826

>  <exports>  (927) 
['/opt/xchem-fragalysis-2/maxwin/BulkDock/OUTPUTS/openbind_xx01zvns2b_c2_elabs_1LOUTNY.sdf', '/opt/xchem-fragalysis-2/maxwin/BulkDock/OUTPUTS/openbind_xx01zvns2b_c2_elabs_1LSYIIV.sdf']

>  <tags>  (927) 
syndirella_placed,openbind_xx01zvns2b_c2_elabs,openbind_xx01zvns2b_c2_elabs_scored_6.2plus,syndirella_product,openbind_xx01zvns2b_c2_elabs_scored,openbind_xx01zvns2b_c2_elabs_scored_top80percent,BulkDock Fragalysis export

>  <subsites>  (927) 
1 - Z4590/B/203/1

>  <smiles>  (927) 
CC(C)c1ccc(N2Cc3ccc(NC(=O)c4cc(C5CC5)nc5c4c(=O)[nH]n5C)cc3C2)cc1

>  <HIPPO Pose ID>  (927) 
125967

>  <energy_score>  (927) 
-41.045929

>  <inchikey>  (927) 
RSMYLFMMJPCFKZ-UHFFFAOYSA-N

>  <gnina_score_min>  (927) 
6.255

>  <gnina_score>  (927) 
6.114

>  <ref_mols>  (927) 
Z3559a

>  <HIPPO Compound ID>  (927) 
188144

>  <distance_score>  (927) 
0.974866

>  <rmsd(smina/fragmenstein)>  (927) 
0.925

>  <ref_pdb>  (927) 
Z3559a

>  <inspiration_score>  (927) 
None

$$$$
P125971
     RDKit          3D

 35 40  0  0  0  0  0  0  0  0999 V2000
   -4.7827    4.8679  -20.7032 C   0  0  0  0  0  0  0  0  0  0  0  0
   -5.0714    6.0021  -19.7437 C   0  0  0  0  0  0  0  0  0  0  0  0
   -5.0543    5.6320  -18.3450 N   0  0  0  0  0  0  0  0  0  0  0  0
   -4.0467    6.0624  -17.5466 N   0  0  0  0  0  0  0  0  0  0  0  0
   -4.5268    5.8668  -16.3138 C   0  0  0  0  0  0  0  0  0  0  0  0
   -5.8134    5.2908  -16.3170 C   0  0  0  0  0  0  0  0  0  0  0  0
   -6.8042    4.9475  -15.3967 C   0  0  0  0  0  0  0  0  0  0  0  0
   -6.6293    5.3536  -13.9924 C   0  0  0  0  0  0  0  0  0  0  0  0
   -6.0830    6.3649  -13.7913 O   0  0  0  0  0  0  0  0  0  0  0  0
   -7.3021    4.3696  -13.0150 N   0  0  0  0  0  0  0  0  0  0  0  0
   -7.5191    4.4641  -11.6514 C   0  0  0  0  0  0  0  0  0  0  0  0
   -7.1046    5.6325  -10.9806 C   0  0  0  0  0  0  0  0  0  0  0  0
   -7.3928    5.8260   -9.6421 C   0  0  0  0  0  0  0  0  0  0  0  0
   -8.0947    4.8238   -9.0226 C   0  0  0  0  0  0  0  0  0  0  0  0
   -8.4961    3.6469   -9.6513 C   0  0  0  0  0  0  0  0  0  0  0  0
   -8.2032    3.4418  -10.9844 C   0  0  0  0  0  0  0  0  0  0  0  0
   -9.2635    2.8116   -8.6882 C   0  0  0  0  0  0  0  0  0  0  0  0
   -9.4340    3.7454   -7.5553 N   0  0  0  0  0  0  0  0  0  0  0  0
  -10.2015    3.3661   -6.3719 C   0  0  2  0  0  0  0  0  0  0  0  0
  -10.3237    4.3565   -5.2198 C   0  0  0  0  0  0  0  0  0  0  0  0
   -9.0508    4.6082   -4.4168 C   0  0  0  0  0  0  0  0  0  0  0  0
   -7.9297    3.6408   -4.6946 C   0  0  0  0  0  0  0  0  0  0  0  0
   -6.7866    3.8104   -4.2636 O   0  0  0  0  0  0  0  0  0  0  0  0
   -8.2419    2.5091   -5.3907 N   0  0  0  0  0  0  0  0  0  0  0  0
   -9.4578    2.1705   -5.9303 C   0  0  0  0  0  0  0  0  0  0  0  0
   -9.8368    1.0373   -6.2004 O   0  0  0  0  0  0  0  0  0  0  0  0
   -8.6572    4.8695   -7.6883 C   0  0  0  0  0  0  0  0  0  0  0  0
   -8.4953    5.8014   -6.9263 O   0  0  0  0  0  0  0  0  0  0  0  0
   -8.0036    4.4136  -15.8811 C   0  0  0  0  0  0  0  0  0  0  0  0
   -8.1813    4.2412  -17.2557 C   0  0  0  0  0  0  0  0  0  0  0  0
   -9.5090    3.7393  -17.7706 C   0  0  0  0  0  0  0  0  0  0  0  0
   -9.8984    3.9183  -19.2144 C   0  0  0  0  0  0  0  0  0  0  0  0
   -9.5385    2.5548  -18.7022 C   0  0  0  0  0  0  0  0  0  0  0  0
   -7.2319    4.5786  -18.1606 N   0  0  0  0  0  0  0  0  0  0  0  0
   -6.1067    5.0981  -17.6502 C   0  0  0  0  0  0  0  0  0  0  0  0
  1  2  1  0
  2  3  1  0
  3  4  1  0
  4  5  2  0
  5  6  1  0
  6  7  2  0
  7  8  1  0
  8  9  2  0
  8 10  1  0
 10 11  1  0
 11 12  2  0
 12 13  1  0
 13 14  2  0
 14 15  1  0
 15 16  2  0
 15 17  1  0
 17 18  1  0
 19 18  1  6
 19 20  1  0
 20 21  1  0
 21 22  1  0
 22 23  2  0
 22 24  1  0
 24 25  1  0
 25 26  2  0
 18 27  1  0
 27 28  2  0
  7 29  1  0
 29 30  2  0
 30 31  1  0
 31 32  1  0
 32 33  1  0
 30 34  1  0
 34 35  2  0
 35  3  1  0
 35  6  1  0
 16 11  1  0
 25 19  1  0
 33 31  1  0
 27 14  1  0
M  END
>  <name>  (928) 
P125971

>  <alias>  (928) 
None

>  <smina_score_min>  (928) 
-8.644

>  <exports>  (928) 
['/opt/xchem-fragalysis-2/maxwin/BulkDock/OUTPUTS/openbind_xx01zvns2b_c2_elabs_1LOUTNY.sdf', '/opt/xchem-fragalysis-2/maxwin/BulkDock/OUTPUTS/openbind_xx01zvns2b_c2_elabs_1LSYIIV.sdf']

>  <tags>  (928) 
syndirella_placed,openbind_xx01zvns2b_c2_elabs,openbind_xx01zvns2b_c2_elabs_scored_6.2plus,syndirella_product,openbind_xx01zvns2b_c2_elabs_scored,openbind_xx01zvns2b_c2_elabs_scored_top80percent,BulkDock Fragalysis export

>  <subsites>  (928) 
1 - Z4590/B/203/1

>  <smiles>  (928) 
CCn1ncc2c(C(=O)Nc3ccc4c(c3)CN([C@@H]3CCC(=O)NC3=O)C4=O)cc(C3CC3)nc21

>  <HIPPO Pose ID>  (928) 
125971

>  <energy_score>  (928) 
-37.633003

>  <inchikey>  (928) 
GQBSPOOGGMLUEA-HXUWFJFHSA-N

>  <gnina_score_min>  (928) 
6.294

>  <gnina_score>  (928) 
6.315

>  <ref_mols>  (928) 
Z3559a

>  <HIPPO Compound ID>  (928) 
188148

>  <distance_score>  (928) 
0.873949

>  <rmsd(smina/fragmenstein)>  (928) 
1.441

>  <ref_pdb>  (928) 
Z3559a

>  <inspiration_score>  (928) 
None

$$$$
P125975
     RDKit          3D

 35 40  0  0  0  0  0  0  0  0999 V2000
   -4.6345    4.9662  -20.5059 C   0  0  0  0  0  0  0  0  0  0  0  0
   -5.0387    6.0608  -19.5443 C   0  0  0  0  0  0  0  0  0  0  0  0
   -5.0882    5.6607  -18.1534 N   0  0  0  0  0  0  0  0  0  0  0  0
   -4.1578    6.1311  -17.2853 N   0  0  0  0  0  0  0  0  0  0  0  0
   -4.7256    5.9357  -16.0893 C   0  0  0  0  0  0  0  0  0  0  0  0
   -5.9851    5.3115  -16.1820 C   0  0  0  0  0  0  0  0  0  0  0  0
   -7.0464    4.9671  -15.3461 C   0  0  0  0  0  0  0  0  0  0  0  0
   -7.0932    5.4856  -13.9749 C   0  0  0  0  0  0  0  0  0  0  0  0
   -6.7580    6.5896  -13.8016 O   0  0  0  0  0  0  0  0  0  0  0  0
   -7.6949    4.4583  -12.9954 N   0  0  0  0  0  0  0  0  0  0  0  0
   -7.9142    4.5383  -11.6307 C   0  0  0  0  0  0  0  0  0  0  0  0
   -7.8549    5.8075  -11.0187 C   0  0  0  0  0  0  0  0  0  0  0  0
   -8.1197    5.9592   -9.6699 C   0  0  0  0  0  0  0  0  0  0  0  0
   -8.4078    4.8102   -8.9773 C   0  0  0  0  0  0  0  0  0  0  0  0
   -8.4393    3.5345   -9.5453 C   0  0  0  0  0  0  0  0  0  0  0  0
   -8.2225    3.3836  -10.9002 C   0  0  0  0  0  0  0  0  0  0  0  0
   -8.7113    2.5258   -8.4786 C   0  0  0  0  0  0  0  0  0  0  0  0
   -8.6347    3.3597   -7.2796 N   0  0  0  0  0  0  0  0  0  0  0  0
   -8.7099    2.8294   -5.9376 C   0  0  2  0  0  0  0  0  0  0  0  0
  -10.1391    2.5956   -5.5097 C   0  0  0  0  0  0  0  0  0  0  0  0
  -10.6907    3.7099   -4.6704 C   0  0  1  0  0  0  0  0  0  0  0  0
  -11.8061    3.2001   -4.0838 F   0  0  0  0  0  0  0  0  0  0  0  0
   -9.7503    4.1807   -3.5752 C   0  0  0  0  0  0  0  0  0  0  0  0
   -8.4460    4.4868   -4.0497 N   0  0  0  0  0  0  0  0  0  0  0  0
   -7.8370    3.7375   -5.0072 C   0  0  0  0  0  0  0  0  0  0  0  0
   -6.6240    3.9201   -5.1399 O   0  0  0  0  0  0  0  0  0  0  0  0
   -8.6841    4.7005   -7.5581 C   0  0  0  0  0  0  0  0  0  0  0  0
   -8.8953    5.6409   -6.8171 O   0  0  0  0  0  0  0  0  0  0  0  0
   -8.1856    4.3873  -15.9085 C   0  0  0  0  0  0  0  0  0  0  0  0
   -8.2522    4.1991  -17.2870 C   0  0  0  0  0  0  0  0  0  0  0  0
   -9.5478    3.7179  -17.8878 C   0  0  0  0  0  0  0  0  0  0  0  0
   -9.5605    2.4717  -18.7292 C   0  0  0  0  0  0  0  0  0  0  0  0
   -9.7859    3.8106  -19.3694 C   0  0  0  0  0  0  0  0  0  0  0  0
   -7.2375    4.5340  -18.1208 N   0  0  0  0  0  0  0  0  0  0  0  0
   -6.1665    5.0874  -17.5318 C   0  0  0  0  0  0  0  0  0  0  0  0
  1  2  1  0
  2  3  1  0
  3  4  1  0
  4  5  2  0
  5  6  1  0
  6  7  2  0
  7  8  1  0
  8  9  2  0
  8 10  1  0
 10 11  1  0
 11 12  2  0
 12 13  1  0
 13 14  2  0
 14 15  1  0
 15 16  2  0
 15 17  1  0
 17 18  1  0
 19 18  1  6
 19 20  1  0
 20 21  1  0
 21 22  1  1
 21 23  1  0
 23 24  1  0
 24 25  1  0
 25 26  2  0
 18 27  1  0
 27 28  2  0
  7 29  1  0
 29 30  2  0
 30 31  1  0
 31 32  1  0
 32 33  1  0
 30 34  1  0
 34 35  2  0
 35  3  1  0
 35  6  1  0
 16 11  1  0
 25 19  1  0
 33 31  1  0
 27 14  1  0
M  END
>  <name>  (929) 
P125975

>  <alias>  (929) 
None

>  <smina_score_min>  (929) 
-9.203

>  <exports>  (929) 
['/opt/xchem-fragalysis-2/maxwin/BulkDock/OUTPUTS/openbind_xx01zvns2b_c2_elabs_1LOUTNY.sdf', '/opt/xchem-fragalysis-2/maxwin/BulkDock/OUTPUTS/openbind_xx01zvns2b_c2_elabs_1LSYIIV.sdf']

>  <tags>  (929) 
syndirella_placed,openbind_xx01zvns2b_c2_elabs,openbind_xx01zvns2b_c2_elabs_scored_6.2plus,syndirella_product,openbind_xx01zvns2b_c2_elabs_scored,openbind_xx01zvns2b_c2_elabs_scored_top80percent,BulkDock Fragalysis export

>  <subsites>  (929) 
1 - Z4590/B/203/1

>  <smiles>  (929) 
CCn1ncc2c(C(=O)Nc3ccc4c(c3)CN([C@@H]3C[C@@H](F)CNC3=O)C4=O)cc(C3CC3)nc21

>  <HIPPO Pose ID>  (929) 
125975

>  <energy_score>  (929) 
-23.762896

>  <inchikey>  (929) 
SEXKWUGPYGUXHY-QVKFZJNVSA-N

>  <gnina_score_min>  (929) 
6.469

>  <gnina_score>  (929) 
6.272

>  <ref_mols>  (929) 
Z3559a

>  <HIPPO Compound ID>  (929) 
188149

>  <distance_score>  (929) 
0.70443

>  <rmsd(smina/fragmenstein)>  (929) 
0.543

>  <ref_pdb>  (929) 
Z3559a

>  <inspiration_score>  (929) 
None

$$$$
P125978
     RDKit          3D

 35 40  0  0  0  0  0  0  0  0999 V2000
   -4.4797    5.0366  -20.3511 C   0  0  0  0  0  0  0  0  0  0  0  0
   -5.0053    6.0872  -19.4004 C   0  0  0  0  0  0  0  0  0  0  0  0
   -5.1171    5.6614  -18.0200 N   0  0  0  0  0  0  0  0  0  0  0  0
   -4.2755    6.1752  -17.0881 N   0  0  0  0  0  0  0  0  0  0  0  0
   -4.9195    5.9484  -15.9367 C   0  0  0  0  0  0  0  0  0  0  0  0
   -6.1385    5.2600  -16.1171 C   0  0  0  0  0  0  0  0  0  0  0  0
   -7.2458    4.8625  -15.3550 C   0  0  0  0  0  0  0  0  0  0  0  0
   -7.3519    5.3716  -13.9796 C   0  0  0  0  0  0  0  0  0  0  0  0
   -7.0428    6.4870  -13.8204 O   0  0  0  0  0  0  0  0  0  0  0  0
   -7.8850    4.3262  -12.9734 N   0  0  0  0  0  0  0  0  0  0  0  0
   -8.0528    4.4031  -11.5959 C   0  0  0  0  0  0  0  0  0  0  0  0
   -7.7382    5.6308  -10.9663 C   0  0  0  0  0  0  0  0  0  0  0  0
   -7.8690    5.7985   -9.5990 C   0  0  0  0  0  0  0  0  0  0  0  0
   -8.3079    4.7045   -8.9003 C   0  0  0  0  0  0  0  0  0  0  0  0
   -8.6249    3.4910   -9.4859 C   0  0  0  0  0  0  0  0  0  0  0  0
   -8.5103    3.3065  -10.8526 C   0  0  0  0  0  0  0  0  0  0  0  0
   -9.0714    2.6099   -8.3984 C   0  0  0  0  0  0  0  0  0  0  0  0
   -9.5499    1.5075   -8.5629 O   0  0  0  0  0  0  0  0  0  0  0  0
   -8.8746    3.3130   -7.2358 N   0  0  0  0  0  0  0  0  0  0  0  0
   -9.1548    2.8378   -5.9050 C   0  0  1  0  0  0  0  0  0  0  0  0
   -8.1484    3.3143   -4.8544 C   0  0  0  0  0  0  0  0  0  0  0  0
   -8.9954    3.7371   -3.7012 C   0  0  0  0  0  0  0  0  0  0  0  0
   -8.5849    4.0144   -2.5850 O   0  0  0  0  0  0  0  0  0  0  0  0
  -10.2819    3.8028   -4.1041 N   0  0  0  0  0  0  0  0  0  0  0  0
  -10.4569    3.4018   -5.3870 C   0  0  0  0  0  0  0  0  0  0  0  0
  -11.5026    3.5305   -5.9965 O   0  0  0  0  0  0  0  0  0  0  0  0
   -8.5405    4.6064   -7.4817 C   0  0  0  0  0  0  0  0  0  0  0  0
   -8.4662    5.5513   -6.7175 O   0  0  0  0  0  0  0  0  0  0  0  0
   -8.3007    4.2077  -15.9958 C   0  0  0  0  0  0  0  0  0  0  0  0
   -8.2211    3.9792  -17.3707 C   0  0  0  0  0  0  0  0  0  0  0  0
   -9.3525    3.3267  -18.1206 C   0  0  0  0  0  0  0  0  0  0  0  0
   -9.7493    3.9969  -19.4125 C   0  0  0  0  0  0  0  0  0  0  0  0
  -10.7063    3.9768  -18.2736 C   0  0  0  0  0  0  0  0  0  0  0  0
   -7.1687    4.3763  -18.1287 N   0  0  0  0  0  0  0  0  0  0  0  0
   -6.1954    5.0173  -17.4724 C   0  0  0  0  0  0  0  0  0  0  0  0
  1  2  1  0
  2  3  1  0
  3  4  1  0
  4  5  2  0
  5  6  1  0
  6  7  2  0
  7  8  1  0
  8  9  2  0
  8 10  1  0
 10 11  1  0
 11 12  2  0
 12 13  1  0
 13 14  2  0
 14 15  1  0
 15 16  2  0
 15 17  1  0
 17 18  2  0
 17 19  1  0
 20 19  1  6
 20 21  1  0
 21 22  1  0
 22 23  2  0
 22 24  1  0
 24 25  1  0
 25 26  2  0
 19 27  1  0
 27 28  2  0
  7 29  1  0
 29 30  2  0
 30 31  1  0
 31 32  1  0
 32 33  1  0
 30 34  1  0
 34 35  2  0
 35  3  1  0
 35  6  1  0
 16 11  1  0
 25 20  1  0
 33 31  1  0
 27 14  1  0
M  END
>  <name>  (930) 
P125978

>  <alias>  (930) 
None

>  <smina_score_min>  (930) 
-9.749

>  <exports>  (930) 
['/opt/xchem-fragalysis-2/maxwin/BulkDock/OUTPUTS/openbind_xx01zvns2b_c2_elabs_1LOUTNY.sdf', '/opt/xchem-fragalysis-2/maxwin/BulkDock/OUTPUTS/openbind_xx01zvns2b_c2_elabs_1LSYIIV.sdf']

>  <tags>  (930) 
syndirella_placed,openbind_xx01zvns2b_c2_elabs,openbind_xx01zvns2b_c2_elabs_scored_6.2plus,syndirella_product,openbind_xx01zvns2b_c2_elabs_scored,openbind_xx01zvns2b_c2_elabs_scored_top80percent,BulkDock Fragalysis export

>  <subsites>  (930) 
1 - Z4590/B/203/1

>  <smiles>  (930) 
CCn1ncc2c(C(=O)Nc3ccc4c(c3)C(=O)N([C@H]3CC(=O)NC3=O)C4=O)cc(C3CC3)nc21

>  <HIPPO Pose ID>  (930) 
125978

>  <energy_score>  (930) 
-60.254676

>  <inchikey>  (930) 
DJHDKYYYUCUSMJ-SFHVURJKSA-N

>  <gnina_score_min>  (930) 
6.34

>  <gnina_score>  (930) 
6.331

>  <ref_mols>  (930) 
Z3559a

>  <HIPPO Compound ID>  (930) 
188150

>  <distance_score>  (930) 
0.746469

>  <rmsd(smina/fragmenstein)>  (930) 
0.334

>  <ref_pdb>  (930) 
Z3559a

>  <inspiration_score>  (930) 
None

$$$$
P125981
     RDKit          3D

 35 40  0  0  0  0  0  0  0  0999 V2000
   -5.0552    6.7433  -20.0979 C   0  0  0  0  0  0  0  0  0  0  0  0
   -4.7755    5.3864  -19.4781 C   0  0  0  0  0  0  0  0  0  0  0  0
   -5.0241    5.3805  -18.0518 N   0  0  0  0  0  0  0  0  0  0  0  0
   -4.0976    5.8775  -17.1935 N   0  0  0  0  0  0  0  0  0  0  0  0
   -4.7140    5.7996  -16.0074 C   0  0  0  0  0  0  0  0  0  0  0  0
   -6.0038    5.2331  -16.0954 C   0  0  0  0  0  0  0  0  0  0  0  0
   -7.0808    4.9377  -15.2545 C   0  0  0  0  0  0  0  0  0  0  0  0
   -7.0378    5.3986  -13.8616 C   0  0  0  0  0  0  0  0  0  0  0  0
   -6.5583    6.4473  -13.6730 O   0  0  0  0  0  0  0  0  0  0  0  0
   -7.6835    4.3990  -12.8732 N   0  0  0  0  0  0  0  0  0  0  0  0
   -7.9487    4.5174  -11.5162 C   0  0  0  0  0  0  0  0  0  0  0  0
   -7.7243    5.7817  -10.9250 C   0  0  0  0  0  0  0  0  0  0  0  0
   -7.9380    5.9942   -9.5776 C   0  0  0  0  0  0  0  0  0  0  0  0
   -8.3637    4.9068   -8.8605 C   0  0  0  0  0  0  0  0  0  0  0  0
   -8.5978    3.6575   -9.4068 C   0  0  0  0  0  0  0  0  0  0  0  0
   -8.4092    3.4299  -10.7587 C   0  0  0  0  0  0  0  0  0  0  0  0
   -9.0022    2.7883   -8.2920 C   0  0  0  0  0  0  0  0  0  0  0  0
   -9.3440    1.6322   -8.4251 O   0  0  0  0  0  0  0  0  0  0  0  0
   -8.8975    3.5563   -7.1568 N   0  0  0  0  0  0  0  0  0  0  0  0
   -9.0223    3.0971   -5.7873 C   0  0  1  0  0  0  0  0  0  0  0  0
   -7.8345    3.5980   -4.9416 C   0  0  0  0  0  0  0  0  0  0  0  0
   -8.1359    4.6417   -3.8757 C   0  0  0  0  0  0  0  0  0  0  0  0
   -9.3225    4.1782   -3.0772 C   0  0  0  0  0  0  0  0  0  0  0  0
  -10.4437    3.9714   -3.9495 N   0  0  0  0  0  0  0  0  0  0  0  0
  -10.3838    3.4974   -5.2301 C   0  0  0  0  0  0  0  0  0  0  0  0
  -11.4264    3.4252   -5.8746 O   0  0  0  0  0  0  0  0  0  0  0  0
   -8.6147    4.8517   -7.4451 C   0  0  0  0  0  0  0  0  0  0  0  0
   -8.5371    5.8270   -6.7215 O   0  0  0  0  0  0  0  0  0  0  0  0
   -8.2393    4.3988  -15.8169 C   0  0  0  0  0  0  0  0  0  0  0  0
   -8.2989    4.1831  -17.1949 C   0  0  0  0  0  0  0  0  0  0  0  0
   -9.5954    3.7262  -17.8142 C   0  0  0  0  0  0  0  0  0  0  0  0
   -9.6024    2.5080  -18.6987 C   0  0  0  0  0  0  0  0  0  0  0  0
   -9.8302    3.8661  -19.2947 C   0  0  0  0  0  0  0  0  0  0  0  0
   -7.2574    4.4418  -18.0215 N   0  0  0  0  0  0  0  0  0  0  0  0
   -6.1712    4.9630  -17.4363 C   0  0  0  0  0  0  0  0  0  0  0  0
  1  2  1  0
  2  3  1  0
  3  4  1  0
  4  5  2  0
  5  6  1  0
  6  7  2  0
  7  8  1  0
  8  9  2  0
  8 10  1  0
 10 11  1  0
 11 12  2  0
 12 13  1  0
 13 14  2  0
 14 15  1  0
 15 16  2  0
 15 17  1  0
 17 18  2  0
 17 19  1  0
 20 19  1  6
 20 21  1  0
 21 22  1  0
 22 23  1  0
 23 24  1  0
 24 25  1  0
 25 26  2  0
 19 27  1  0
 27 28  2  0
  7 29  1  0
 29 30  2  0
 30 31  1  0
 31 32  1  0
 32 33  1  0
 30 34  1  0
 34 35  2  0
 35  3  1  0
 35  6  1  0
 16 11  1  0
 25 20  1  0
 33 31  1  0
 27 14  1  0
M  END
>  <name>  (931) 
P125981

>  <alias>  (931) 
None

>  <smina_score_min>  (931) 
-9.54

>  <exports>  (931) 
['/opt/xchem-fragalysis-2/maxwin/BulkDock/OUTPUTS/openbind_xx01zvns2b_c2_elabs_1LOUTNY.sdf', '/opt/xchem-fragalysis-2/maxwin/BulkDock/OUTPUTS/openbind_xx01zvns2b_c2_elabs_1LSYIIV.sdf']

>  <tags>  (931) 
syndirella_placed,openbind_xx01zvns2b_c2_elabs,openbind_xx01zvns2b_c2_elabs_scored_6.2plus,syndirella_product,openbind_xx01zvns2b_c2_elabs_scored,openbind_xx01zvns2b_c2_elabs_scored_top80percent,BulkDock Fragalysis export

>  <subsites>  (931) 
1 - Z4590/B/203/1

>  <smiles>  (931) 
CCn1ncc2c(C(=O)Nc3ccc4c(c3)C(=O)N([C@H]3CCCNC3=O)C4=O)cc(C3CC3)nc21

>  <HIPPO Pose ID>  (931) 
125981

>  <energy_score>  (931) 
-55.49437

>  <inchikey>  (931) 
VAHFLIUYTLKKLW-FQEVSTJZSA-N

>  <gnina_score_min>  (931) 
6.296

>  <gnina_score>  (931) 
6.3

>  <ref_mols>  (931) 
Z3559a

>  <HIPPO Compound ID>  (931) 
188153

>  <distance_score>  (931) 
0.67228

>  <rmsd(smina/fragmenstein)>  (931) 
0.227

>  <ref_pdb>  (931) 
Z3559a

>  <inspiration_score>  (931) 
None

$$$$
P125982
     RDKit          3D

 35 40  0  0  0  0  0  0  0  0999 V2000
   -3.3853    5.5338  -19.9835 C   0  0  0  0  0  0  0  0  0  0  0  0
   -4.8384    5.4669  -19.5371 C   0  0  0  0  0  0  0  0  0  0  0  0
   -5.0352    5.4377  -18.1018 N   0  0  0  0  0  0  0  0  0  0  0  0
   -4.1249    5.9741  -17.2513 N   0  0  0  0  0  0  0  0  0  0  0  0
   -4.7313    5.8890  -16.0609 C   0  0  0  0  0  0  0  0  0  0  0  0
   -6.0117    5.3026  -16.1397 C   0  0  0  0  0  0  0  0  0  0  0  0
   -7.0871    5.0136  -15.2957 C   0  0  0  0  0  0  0  0  0  0  0  0
   -7.0465    5.4862  -13.9048 C   0  0  0  0  0  0  0  0  0  0  0  0
   -6.5427    6.5203  -13.7047 O   0  0  0  0  0  0  0  0  0  0  0  0
   -7.6964    4.4835  -12.9269 N   0  0  0  0  0  0  0  0  0  0  0  0
   -7.9378    4.5814  -11.5659 C   0  0  0  0  0  0  0  0  0  0  0  0
   -7.6106    5.7840  -10.9065 C   0  0  0  0  0  0  0  0  0  0  0  0
   -7.7391    5.9125   -9.5315 C   0  0  0  0  0  0  0  0  0  0  0  0
   -8.1977    4.8167   -8.8420 C   0  0  0  0  0  0  0  0  0  0  0  0
   -8.5674    3.6427   -9.4989 C   0  0  0  0  0  0  0  0  0  0  0  0
   -8.4530    3.4912  -10.8654 C   0  0  0  0  0  0  0  0  0  0  0  0
   -9.0088    2.6883   -8.4786 C   0  0  0  0  0  0  0  0  0  0  0  0
   -9.4714    1.5897   -8.7045 O   0  0  0  0  0  0  0  0  0  0  0  0
   -8.8096    3.3105   -7.2518 N   0  0  0  0  0  0  0  0  0  0  0  0
   -8.8593    2.5885   -5.9944 C   0  0  2  0  0  0  0  0  0  0  0  0
  -10.3042    2.3565   -5.5741 C   0  0  0  0  0  0  0  0  0  0  0  0
  -10.8463    3.5516   -4.8251 C   0  0  0  0  0  0  0  0  0  0  0  0
   -9.9231    4.0660   -3.7493 C   0  0  0  0  0  0  0  0  0  0  0  0
  -10.2092    4.9789   -2.9810 O   0  0  0  0  0  0  0  0  0  0  0  0
   -8.6897    3.5219   -3.6911 N   0  0  0  0  0  0  0  0  0  0  0  0
   -8.0472    3.2777   -4.8623 C   0  0  0  0  0  0  0  0  0  0  0  0
   -6.8927    3.7042   -4.9595 O   0  0  0  0  0  0  0  0  0  0  0  0
   -8.2959    4.6516   -7.3759 C   0  0  0  0  0  0  0  0  0  0  0  0
   -8.2366    4.4476  -15.8502 C   0  0  0  0  0  0  0  0  0  0  0  0
   -8.2903    4.2006  -17.2227 C   0  0  0  0  0  0  0  0  0  0  0  0
   -9.5839    3.7206  -17.8300 C   0  0  0  0  0  0  0  0  0  0  0  0
   -9.8323    3.8529  -19.3083 C   0  0  0  0  0  0  0  0  0  0  0  0
   -9.5829    2.4995  -18.7095 C   0  0  0  0  0  0  0  0  0  0  0  0
   -7.2502    4.4551  -18.0536 N   0  0  0  0  0  0  0  0  0  0  0  0
   -6.1730    5.0042  -17.4755 C   0  0  0  0  0  0  0  0  0  0  0  0
  1  2  1  0
  2  3  1  0
  3  4  1  0
  4  5  2  0
  5  6  1  0
  6  7  2  0
  7  8  1  0
  8  9  2  0
  8 10  1  0
 10 11  1  0
 11 12  2  0
 12 13  1  0
 13 14  2  0
 14 15  1  0
 15 16  2  0
 15 17  1  0
 17 18  2  0
 17 19  1  0
 20 19  1  6
 20 21  1  0
 21 22  1  0
 22 23  1  0
 23 24  2  0
 23 25  1  0
 25 26  1  0
 26 27  2  0
 19 28  1  0
  7 29  1  0
 29 30  2  0
 30 31  1  0
 31 32  1  0
 32 33  1  0
 30 34  1  0
 34 35  2  0
 35  3  1  0
 35  6  1  0
 16 11  1  0
 26 20  1  0
 33 31  1  0
 28 14  1  0
M  END
>  <name>  (932) 
P125982

>  <alias>  (932) 
None

>  <smina_score_min>  (932) 
-9.427

>  <exports>  (932) 
['/opt/xchem-fragalysis-2/maxwin/BulkDock/OUTPUTS/openbind_xx01zvns2b_c2_elabs_1LOUTNY.sdf', '/opt/xchem-fragalysis-2/maxwin/BulkDock/OUTPUTS/openbind_xx01zvns2b_c2_elabs_1LSYIIV.sdf']

>  <tags>  (932) 
syndirella_placed,openbind_xx01zvns2b_c2_elabs,openbind_xx01zvns2b_c2_elabs_scored_6.2plus,syndirella_product,openbind_xx01zvns2b_c2_elabs_scored,openbind_xx01zvns2b_c2_elabs_scored_top80percent,BulkDock Fragalysis export

>  <subsites>  (932) 
1 - Z4590/B/203/1

>  <smiles>  (932) 
CCn1ncc2c(C(=O)Nc3ccc4c(c3)C(=O)N([C@@H]3CCC(=O)NC3=O)C4)cc(C3CC3)nc21

>  <HIPPO Pose ID>  (932) 
125982

>  <energy_score>  (932) 
-47.001576

>  <inchikey>  (932) 
HYBOXWIEVCSFKH-HXUWFJFHSA-N

>  <gnina_score_min>  (932) 
6.23

>  <gnina_score>  (932) 
6.339

>  <ref_mols>  (932) 
Z3559a

>  <HIPPO Compound ID>  (932) 
188154

>  <distance_score>  (932) 
0.664646

>  <rmsd(smina/fragmenstein)>  (932) 
0.855

>  <ref_pdb>  (932) 
Z3559a

>  <inspiration_score>  (932) 
None

$$$$
P125984
     RDKit          3D

 35 40  0  0  0  0  0  0  0  0999 V2000
   -4.9478    6.8410  -19.3920 C   0  0  0  0  0  0  0  0  0  0  0  0
   -4.6326    5.5097  -18.7336 C   0  0  0  0  0  0  0  0  0  0  0  0
   -5.1524    5.4323  -17.3829 N   0  0  0  0  0  0  0  0  0  0  0  0
   -4.4259    5.8866  -16.3320 N   0  0  0  0  0  0  0  0  0  0  0  0
   -5.2553    5.7142  -15.2920 C   0  0  0  0  0  0  0  0  0  0  0  0
   -6.4935    5.1442  -15.6599 C   0  0  0  0  0  0  0  0  0  0  0  0
   -7.7200    4.7854  -15.0911 C   0  0  0  0  0  0  0  0  0  0  0  0
   -8.0676    5.0446  -13.6945 C   0  0  0  0  0  0  0  0  0  0  0  0
   -8.9919    5.7180  -13.4661 O   0  0  0  0  0  0  0  0  0  0  0  0
   -7.0761    4.3560  -12.7427 N   0  0  0  0  0  0  0  0  0  0  0  0
   -6.9576    4.4228  -11.3648 C   0  0  0  0  0  0  0  0  0  0  0  0
   -5.8072    3.8739  -10.7807 C   0  0  0  0  0  0  0  0  0  0  0  0
   -5.4974    4.1209   -9.4433 C   0  0  0  0  0  0  0  0  0  0  0  0
   -6.3716    4.8950   -8.7356 C   0  0  0  0  0  0  0  0  0  0  0  0
   -7.5504    5.3378   -9.2791 C   0  0  0  0  0  0  0  0  0  0  0  0
   -7.8823    5.1217  -10.5932 C   0  0  0  0  0  0  0  0  0  0  0  0
   -8.0907    6.1379   -8.1429 C   0  0  2  0  0  0  0  0  0  0  0  0
   -7.4024    7.5023   -8.0245 C   0  0  0  0  0  0  0  0  0  0  0  0
   -6.0925    7.0395   -7.4459 C   0  0  0  0  0  0  0  0  0  0  0  0
   -6.3837    5.5403   -7.3881 C   0  0  1  0  0  0  0  0  0  0  0  0
   -7.7839    5.3118   -6.8813 N   0  0  0  0  0  0  0  0  0  0  0  0
   -8.4844    5.8583   -5.6971 C   0  0  0  0  0  0  0  0  0  0  0  0
   -8.1412    6.6606   -4.9162 O   0  0  0  0  0  0  0  0  0  0  0  0
   -9.6630    5.1746   -5.5652 O   0  0  0  0  0  0  0  0  0  0  0  0
   -9.5486    3.7717   -5.1707 C   0  0  0  0  0  0  0  0  0  0  0  0
   -8.9661    2.8767   -6.2678 C   0  0  0  0  0  0  0  0  0  0  0  0
  -10.9614    3.2612   -4.9290 C   0  0  0  0  0  0  0  0  0  0  0  0
   -8.7622    3.7143   -3.8533 C   0  0  0  0  0  0  0  0  0  0  0  0
   -8.7246    4.2936  -15.9109 C   0  0  0  0  0  0  0  0  0  0  0  0
   -8.5110    4.1931  -17.2756 C   0  0  0  0  0  0  0  0  0  0  0  0
   -9.6665    3.7951  -18.1380 C   0  0  0  0  0  0  0  0  0  0  0  0
   -9.6732    2.4255  -18.7486 C   0  0  0  0  0  0  0  0  0  0  0  0
   -9.4964    3.6386  -19.6184 C   0  0  0  0  0  0  0  0  0  0  0  0
   -7.3331    4.5154  -17.8617 N   0  0  0  0  0  0  0  0  0  0  0  0
   -6.3907    4.9780  -17.0291 C   0  0  0  0  0  0  0  0  0  0  0  0
  1  2  1  0
  2  3  1  0
  3  4  1  0
  4  5  2  0
  5  6  1  0
  6  7  2  0
  7  8  1  0
  8  9  2  0
  8 10  1  0
 10 11  1  0
 11 12  2  0
 12 13  1  0
 13 14  2  0
 14 15  1  0
 15 16  2  0
 15 17  1  0
 17 18  1  1
 18 19  1  0
 20 19  1  6
 20 21  1  0
 21 22  1  0
 22 23  2  0
 22 24  1  0
 24 25  1  0
 25 26  1  0
 25 27  1  0
 25 28  1  0
  7 29  1  0
 29 30  2  0
 30 31  1  0
 31 32  1  0
 32 33  1  0
 30 34  1  0
 34 35  2  0
 35  3  1  0
 35  6  1  0
 16 11  1  0
 21 17  1  0
 33 31  1  0
 20 14  1  0
M  END
>  <name>  (933) 
P125984

>  <alias>  (933) 
None

>  <smina_score_min>  (933) 
-8.572

>  <exports>  (933) 
['/opt/xchem-fragalysis-2/maxwin/BulkDock/OUTPUTS/openbind_xx01zvns2b_c2_elabs_1LOUTNY.sdf', '/opt/xchem-fragalysis-2/maxwin/BulkDock/OUTPUTS/openbind_xx01zvns2b_c2_elabs_1LSYIIV.sdf']

>  <tags>  (933) 
syndirella_placed,openbind_xx01zvns2b_c2_elabs,openbind_xx01zvns2b_c2_elabs_scored_6.2plus,syndirella_product,openbind_xx01zvns2b_c2_elabs_scored,openbind_xx01zvns2b_c2_elabs_scored_top80percent,BulkDock Fragalysis export

>  <subsites>  (933) 
1 - Z4590/B/203/1

>  <smiles>  (933) 
CCn1ncc2c(C(=O)Nc3ccc4c(c3)[C@@H]3CC[C@H]4N3C(=O)OC(C)(C)C)cc(C3CC3)nc21

>  <HIPPO Pose ID>  (933) 
125984

>  <energy_score>  (933) 
-2.603535

>  <inchikey>  (933) 
YFNZSFHMEJBJPW-PKTZIBPZSA-N

>  <gnina_score_min>  (933) 
6.281

>  <gnina_score>  (933) 
6.284

>  <ref_mols>  (933) 
Z3559a

>  <HIPPO Compound ID>  (933) 
188155

>  <distance_score>  (933) 
1.865258

>  <rmsd(smina/fragmenstein)>  (933) 
0.509

>  <ref_pdb>  (933) 
Z3559a

>  <inspiration_score>  (933) 
None

$$$$
P125987
     RDKit          3D

 35 39  0  0  0  0  0  0  0  0999 V2000
   -5.3901    6.8673  -20.3887 C   0  0  0  0  0  0  0  0  0  0  0  0
   -4.4770    5.6938  -20.0689 C   0  0  0  0  0  0  0  0  0  0  0  0
   -3.7301    5.9031  -18.7445 C   0  0  2  0  0  0  0  0  0  0  0  0
   -2.4133    5.1116  -18.7337 C   0  0  0  0  0  0  0  0  0  0  0  0
   -4.4630    5.7218  -17.4955 N   0  0  0  0  0  0  0  0  0  0  0  0
   -3.8639    6.2141  -16.3767 N   0  0  0  0  0  0  0  0  0  0  0  0
   -4.7604    6.0105  -15.4136 C   0  0  0  0  0  0  0  0  0  0  0  0
   -5.9268    5.3824  -15.8833 C   0  0  0  0  0  0  0  0  0  0  0  0
   -7.1670    4.9972  -15.3553 C   0  0  0  0  0  0  0  0  0  0  0  0
   -7.4643    5.4538  -13.9872 C   0  0  0  0  0  0  0  0  0  0  0  0
   -7.2930    6.5948  -13.7987 O   0  0  0  0  0  0  0  0  0  0  0  0
   -7.8558    4.3234  -13.0067 N   0  0  0  0  0  0  0  0  0  0  0  0
   -8.0196    4.3421  -11.6199 C   0  0  0  0  0  0  0  0  0  0  0  0
   -7.5969    5.5100  -10.9470 C   0  0  0  0  0  0  0  0  0  0  0  0
   -7.6530    5.6212   -9.5675 C   0  0  0  0  0  0  0  0  0  0  0  0
   -8.1652    4.5520   -8.8742 C   0  0  0  0  0  0  0  0  0  0  0  0
   -8.6150    3.4010   -9.5160 C   0  0  0  0  0  0  0  0  0  0  0  0
   -8.5347    3.2579  -10.8974 C   0  0  0  0  0  0  0  0  0  0  0  0
   -9.2365    2.5533   -8.4715 C   0  0  0  0  0  0  0  0  0  0  0  0
   -9.8663    1.5393   -8.6974 O   0  0  0  0  0  0  0  0  0  0  0  0
   -9.0415    3.2055   -7.2477 N   0  0  0  0  0  0  0  0  0  0  0  0
   -9.7943    2.9304   -6.0353 C   0  0  0  0  0  0  0  0  0  0  0  0
   -9.0903    3.3425   -4.7275 C   0  0  0  0  0  0  0  0  0  0  0  0
   -9.1876    4.7978   -4.1922 C   0  0  0  0  0  0  0  0  0  0  0  0
   -7.8286    5.5149   -4.2113 C   0  0  0  0  0  0  0  0  0  0  0  0
   -9.6646    4.7857   -2.7303 C   0  0  0  0  0  0  0  0  0  0  0  0
  -10.1197    5.5666   -4.9462 O   0  0  0  0  0  0  0  0  0  0  0  0
   -8.3776    4.4628   -7.4176 C   0  0  0  0  0  0  0  0  0  0  0  0
   -8.1043    4.4265  -16.2112 C   0  0  0  0  0  0  0  0  0  0  0  0
   -7.7838    4.2875  -17.5731 C   0  0  0  0  0  0  0  0  0  0  0  0
   -8.7601    3.7753  -18.6069 C   0  0  0  0  0  0  0  0  0  0  0  0
   -9.4244    2.4451  -18.4066 C   0  0  0  0  0  0  0  0  0  0  0  0
  -10.2459    3.7079  -18.4143 C   0  0  0  0  0  0  0  0  0  0  0  0
   -6.5804    4.6509  -18.0947 N   0  0  0  0  0  0  0  0  0  0  0  0
   -5.7078    5.1950  -17.2351 C   0  0  0  0  0  0  0  0  0  0  0  0
  1  2  1  0
  2  3  1  0
  3  4  1  1
  3  5  1  0
  5  6  1  0
  6  7  2  0
  7  8  1  0
  8  9  2  0
  9 10  1  0
 10 11  2  0
 10 12  1  0
 12 13  1  0
 13 14  2  0
 14 15  1  0
 15 16  2  0
 16 17  1  0
 17 18  2  0
 17 19  1  0
 19 20  2  0
 19 21  1  0
 21 22  1  0
 22 23  1  0
 23 24  1  0
 24 25  1  0
 24 26  1  0
 24 27  1  0
 21 28  1  0
  9 29  1  0
 29 30  2  0
 30 31  1  0
 31 32  1  0
 32 33  1  0
 30 34  1  0
 34 35  2  0
 35  5  1  0
 35  8  1  0
 18 13  1  0
 33 31  1  0
 28 16  1  0
M  END
>  <name>  (934) 
P125987

>  <alias>  (934) 
None

>  <smina_score_min>  (934) 
-8.758

>  <exports>  (934) 
['/opt/xchem-fragalysis-2/maxwin/BulkDock/OUTPUTS/openbind_xx01zvns2b_c2_elabs_1LOUTNY.sdf', '/opt/xchem-fragalysis-2/maxwin/BulkDock/OUTPUTS/openbind_xx01zvns2b_c2_elabs_1LSYIIV.sdf']

>  <tags>  (934) 
syndirella_placed,openbind_xx01zvns2b_c2_elabs,openbind_xx01zvns2b_c2_elabs_scored_6.2plus,syndirella_product,openbind_xx01zvns2b_c2_elabs_scored,openbind_xx01zvns2b_c2_elabs_scored_top80percent,BulkDock Fragalysis export

>  <subsites>  (934) 
1 - Z4590/B/203/1

>  <smiles>  (934) 
CC[C@H](C)n1ncc2c(C(=O)Nc3ccc4c(c3)C(=O)N(CCC(C)(C)O)C4)cc(C3CC3)nc21

>  <HIPPO Pose ID>  (934) 
125987

>  <energy_score>  (934) 
-44.878567

>  <inchikey>  (934) 
XODJCFWRDOXXBG-INIZCTEOSA-N

>  <gnina_score_min>  (934) 
6.452

>  <gnina_score>  (934) 
6.604

>  <ref_mols>  (934) 
Z3559a

>  <HIPPO Compound ID>  (934) 
188159

>  <distance_score>  (934) 
0.805172

>  <rmsd(smina/fragmenstein)>  (934) 
0.433

>  <ref_pdb>  (934) 
Z3559a

>  <inspiration_score>  (934) 
None

$$$$
P125990
     RDKit          3D

 35 40  0  0  0  0  0  0  0  0999 V2000
   -3.5500    6.2263  -14.9094 C   0  0  0  0  0  0  0  0  0  0  0  0
   -4.3668    5.7857  -16.0685 C   0  0  0  0  0  0  0  0  0  0  0  0
   -3.8382    5.8324  -17.3023 N   0  0  0  0  0  0  0  0  0  0  0  0
   -4.8363    5.3875  -18.0959 N   0  0  0  0  0  0  0  0  0  0  0  0
   -4.6852    5.4035  -19.5284 C   0  0  0  0  0  0  0  0  0  0  0  0
   -5.9548    5.0147  -17.4117 C   0  0  0  0  0  0  0  0  0  0  0  0
   -7.0746    4.5062  -17.9446 N   0  0  0  0  0  0  0  0  0  0  0  0
   -8.1065    4.3204  -17.0876 C   0  0  0  0  0  0  0  0  0  0  0  0
   -9.4155    3.8171  -17.6957 C   0  0  0  0  0  0  0  0  0  0  0  0
   -9.7098    4.0121  -19.1625 C   0  0  0  0  0  0  0  0  0  0  0  0
   -9.3963    2.6416  -18.6450 C   0  0  0  0  0  0  0  0  0  0  0  0
   -7.9828    4.6410  -15.7238 C   0  0  0  0  0  0  0  0  0  0  0  0
   -9.3769    4.6768  -14.7157 Cl  0  0  0  0  0  0  0  0  0  0  0  0
   -6.7566    5.0805  -15.1918 C   0  0  0  0  0  0  0  0  0  0  0  0
   -6.6526    5.5238  -13.7861 C   0  0  0  0  0  0  0  0  0  0  0  0
   -6.2533    6.6034  -13.5836 O   0  0  0  0  0  0  0  0  0  0  0  0
   -7.2103    4.4588  -12.8071 N   0  0  0  0  0  0  0  0  0  0  0  0
   -7.4702    4.5341  -11.4450 C   0  0  0  0  0  0  0  0  0  0  0  0
   -7.3285    5.7728  -10.7933 C   0  0  0  0  0  0  0  0  0  0  0  0
   -7.7053    5.9239   -9.4692 C   0  0  0  0  0  0  0  0  0  0  0  0
   -8.2019    4.8078   -8.8386 C   0  0  0  0  0  0  0  0  0  0  0  0
   -8.3405    3.5576   -9.4429 C   0  0  0  0  0  0  0  0  0  0  0  0
   -7.9878    3.4100  -10.7731 C   0  0  0  0  0  0  0  0  0  0  0  0
   -8.8815    2.5772   -8.4461 C   0  0  0  0  0  0  0  0  0  0  0  0
   -8.9059    3.3902   -7.2297 N   0  0  0  0  0  0  0  0  0  0  0  0
   -9.1457    2.8620   -5.9087 C   0  0  1  0  0  0  0  0  0  0  0  0
   -8.1394    3.3590   -4.8670 C   0  0  0  0  0  0  0  0  0  0  0  0
   -8.9854    3.8086   -3.7228 C   0  0  0  0  0  0  0  0  0  0  0  0
   -8.5758    4.0840   -2.6052 O   0  0  0  0  0  0  0  0  0  0  0  0
  -10.2753    3.8543   -4.1168 N   0  0  0  0  0  0  0  0  0  0  0  0
  -10.4736    3.3220   -5.3475 C   0  0  0  0  0  0  0  0  0  0  0  0
  -11.5634    3.2493   -5.8878 O   0  0  0  0  0  0  0  0  0  0  0  0
   -8.6160    4.7125   -7.4525 C   0  0  0  0  0  0  0  0  0  0  0  0
   -8.6472    5.6406   -6.6663 O   0  0  0  0  0  0  0  0  0  0  0  0
   -5.7038    5.3019  -16.0827 C   0  0  0  0  0  0  0  0  0  0  0  0
  1  2  1  0
  2  3  2  0
  3  4  1  0
  4  5  1  0
  4  6  1  0
  6  7  2  0
  7  8  1  0
  8  9  1  0
  9 10  1  0
 10 11  1  0
  8 12  2  0
 12 13  1  0
 12 14  1  0
 14 15  1  0
 15 16  2  0
 15 17  1  0
 17 18  1  0
 18 19  2  0
 19 20  1  0
 20 21  2  0
 21 22  1  0
 22 23  2  0
 22 24  1  0
 24 25  1  0
 26 25  1  6
 26 27  1  0
 27 28  1  0
 28 29  2  0
 28 30  1  0
 30 31  1  0
 31 32  2  0
 25 33  1  0
 33 34  2  0
 14 35  2  0
 35  2  1  0
 35  6  1  0
 11  9  1  0
 23 18  1  0
 31 26  1  0
 33 21  1  0
M  END
>  <name>  (935) 
P125990

>  <alias>  (935) 
None

>  <smina_score_min>  (935) 
-8.796

>  <exports>  (935) 
['/opt/xchem-fragalysis-2/maxwin/BulkDock/OUTPUTS/openbind_xx01zvns2b_c2_elabs_1LOUTNY.sdf', '/opt/xchem-fragalysis-2/maxwin/BulkDock/OUTPUTS/openbind_xx01zvns2b_c2_elabs_1LSYIIV.sdf']

>  <tags>  (935) 
syndirella_placed,openbind_xx01zvns2b_c2_elabs,openbind_xx01zvns2b_c2_elabs_scored_6.2plus,syndirella_product,openbind_xx01zvns2b_c2_elabs_scored,openbind_xx01zvns2b_c2_elabs_scored_top80percent,BulkDock Fragalysis export

>  <subsites>  (935) 
1 - Z4590/B/203/1

>  <smiles>  (935) 
Cc1nn(C)c2nc(C3CC3)c(Cl)c(C(=O)Nc3ccc4c(c3)CN([C@H]3CC(=O)NC3=O)C4=O)c12

>  <HIPPO Pose ID>  (935) 
125990

>  <energy_score>  (935) 
-41.708131

>  <inchikey>  (935) 
WAKOUVAFURTICD-HNNXBMFYSA-N

>  <gnina_score_min>  (935) 
6.561

>  <gnina_score>  (935) 
6.6

>  <ref_mols>  (935) 
Z3559a

>  <HIPPO Compound ID>  (935) 
188161

>  <distance_score>  (935) 
0.76987

>  <rmsd(smina/fragmenstein)>  (935) 
0.35

>  <ref_pdb>  (935) 
Z3559a

>  <inspiration_score>  (935) 
None

$$$$
P125991
     RDKit          3D

 35 40  0  0  0  0  0  0  0  0999 V2000
   -5.4319    7.1868  -19.9210 C   0  0  0  0  0  0  0  0  0  0  0  0
   -4.7116    5.8660  -19.6616 C   0  0  0  0  0  0  0  0  0  0  0  0
   -5.1196    4.8123  -20.6890 C   0  0  0  0  0  0  0  0  0  0  0  0
   -4.8576    5.4968  -18.2585 N   0  0  0  0  0  0  0  0  0  0  0  0
   -3.8861    5.9027  -17.3952 N   0  0  0  0  0  0  0  0  0  0  0  0
   -4.4647    5.8022  -16.1970 C   0  0  0  0  0  0  0  0  0  0  0  0
   -5.7705    5.2892  -16.2719 C   0  0  0  0  0  0  0  0  0  0  0  0
   -6.8233    5.0194  -15.4035 C   0  0  0  0  0  0  0  0  0  0  0  0
   -6.7162    5.4419  -14.0022 C   0  0  0  0  0  0  0  0  0  0  0  0
   -6.3137    6.5121  -13.7751 O   0  0  0  0  0  0  0  0  0  0  0  0
   -7.2722    4.3635  -13.0560 N   0  0  0  0  0  0  0  0  0  0  0  0
   -7.5288    4.4057  -11.6983 C   0  0  0  0  0  0  0  0  0  0  0  0
   -7.1819    5.5491  -10.9516 C   0  0  0  0  0  0  0  0  0  0  0  0
   -7.5163    5.6481   -9.6093 C   0  0  0  0  0  0  0  0  0  0  0  0
   -8.1926    4.5812   -9.0708 C   0  0  0  0  0  0  0  0  0  0  0  0
   -8.5251    3.4318   -9.7859 C   0  0  0  0  0  0  0  0  0  0  0  0
   -8.1882    3.3213  -11.1149 C   0  0  0  0  0  0  0  0  0  0  0  0
   -9.2784    2.4925   -8.9156 C   0  0  0  0  0  0  0  0  0  0  0  0
   -9.5383    3.3298   -7.7470 N   0  0  0  0  0  0  0  0  0  0  0  0
  -10.1228    2.7654   -6.5550 C   0  0  2  0  0  0  0  0  0  0  0  0
  -10.7305    3.7015   -5.5271 C   0  0  0  0  0  0  0  0  0  0  0  0
   -9.6783    3.8154   -4.4673 C   0  0  0  0  0  0  0  0  0  0  0  0
   -9.7898    4.4228   -3.4132 O   0  0  0  0  0  0  0  0  0  0  0  0
   -8.6291    3.0401   -4.8153 N   0  0  0  0  0  0  0  0  0  0  0  0
   -8.9240    2.2415   -5.8720 C   0  0  0  0  0  0  0  0  0  0  0  0
   -8.2815    1.2988   -6.2944 O   0  0  0  0  0  0  0  0  0  0  0  0
   -8.7738    4.4806   -7.7451 C   0  0  0  0  0  0  0  0  0  0  0  0
   -8.6200    5.2959   -6.8562 O   0  0  0  0  0  0  0  0  0  0  0  0
   -8.0088    4.4967  -15.9228 C   0  0  0  0  0  0  0  0  0  0  0  0
   -8.1198    4.2748  -17.2944 C   0  0  0  0  0  0  0  0  0  0  0  0
   -9.4383    3.7719  -17.8386 C   0  0  0  0  0  0  0  0  0  0  0  0
   -9.7734    3.9022  -19.2989 C   0  0  0  0  0  0  0  0  0  0  0  0
   -9.4626    2.5524  -18.7230 C   0  0  0  0  0  0  0  0  0  0  0  0
   -7.1147    4.5578  -18.1615 N   0  0  0  0  0  0  0  0  0  0  0  0
   -5.9898    5.0513  -17.6151 C   0  0  0  0  0  0  0  0  0  0  0  0
  1  2  1  0
  2  3  1  0
  2  4  1  0
  4  5  1  0
  5  6  2  0
  6  7  1  0
  7  8  2  0
  8  9  1  0
  9 10  2  0
  9 11  1  0
 11 12  1  0
 12 13  2  0
 13 14  1  0
 14 15  2  0
 15 16  1  0
 16 17  2  0
 16 18  1  0
 18 19  1  0
 20 19  1  6
 20 21  1  0
 21 22  1  0
 22 23  2  0
 22 24  1  0
 24 25  1  0
 25 26  2  0
 19 27  1  0
 27 28  2  0
  8 29  1  0
 29 30  2  0
 30 31  1  0
 31 32  1  0
 32 33  1  0
 30 34  1  0
 34 35  2  0
 35  4  1  0
 35  7  1  0
 17 12  1  0
 25 20  1  0
 33 31  1  0
 27 15  1  0
M  END
>  <name>  (936) 
P125991

>  <alias>  (936) 
None

>  <smina_score_min>  (936) 
-7.514

>  <exports>  (936) 
['/opt/xchem-fragalysis-2/maxwin/BulkDock/OUTPUTS/openbind_xx01zvns2b_c2_elabs_1LOUTNY.sdf', '/opt/xchem-fragalysis-2/maxwin/BulkDock/OUTPUTS/openbind_xx01zvns2b_c2_elabs_1LSYIIV.sdf']

>  <tags>  (936) 
syndirella_placed,openbind_xx01zvns2b_c2_elabs,openbind_xx01zvns2b_c2_elabs_scored_6.2plus,syndirella_product,openbind_xx01zvns2b_c2_elabs_scored,openbind_xx01zvns2b_c2_elabs_scored_top80percent,BulkDock Fragalysis export

>  <subsites>  (936) 
1 - Z4590/B/203/1

>  <smiles>  (936) 
CC(C)n1ncc2c(C(=O)Nc3ccc4c(c3)CN([C@@H]3CC(=O)NC3=O)C4=O)cc(C3CC3)nc21

>  <HIPPO Pose ID>  (936) 
125991

>  <energy_score>  (936) 
-50.040831

>  <inchikey>  (936) 
GSGSUZNZBDKYKI-HXUWFJFHSA-N

>  <gnina_score_min>  (936) 
6.302

>  <gnina_score>  (936) 
6.462

>  <ref_mols>  (936) 
Z3559a

>  <HIPPO Compound ID>  (936) 
188163

>  <distance_score>  (936) 
0.796165

>  <rmsd(smina/fragmenstein)>  (936) 
0.326

>  <ref_pdb>  (936) 
Z3559a

>  <inspiration_score>  (936) 
None

$$$$
P125994
     RDKit          3D

 35 40  0  0  0  0  0  0  0  0999 V2000
   -2.7415    5.0525  -20.0251 C   0  0  0  0  0  0  0  0  0  0  0  0
   -4.2122    5.2109  -20.3812 C   0  0  0  0  0  0  0  0  0  0  0  0
   -4.9604    6.1440  -19.4415 C   0  0  0  0  0  0  0  0  0  0  0  0
   -5.0602    5.7181  -18.0605 N   0  0  0  0  0  0  0  0  0  0  0  0
   -4.2185    6.2467  -17.1361 N   0  0  0  0  0  0  0  0  0  0  0  0
   -4.8432    6.0017  -15.9785 C   0  0  0  0  0  0  0  0  0  0  0  0
   -6.0577    5.3033  -16.1480 C   0  0  0  0  0  0  0  0  0  0  0  0
   -7.1491    4.8920  -15.3709 C   0  0  0  0  0  0  0  0  0  0  0  0
   -7.2252    5.3849  -13.9844 C   0  0  0  0  0  0  0  0  0  0  0  0
   -6.8682    6.4828  -13.8058 O   0  0  0  0  0  0  0  0  0  0  0  0
   -7.7295    4.3209  -12.9846 N   0  0  0  0  0  0  0  0  0  0  0  0
   -7.9809    4.4113  -11.6195 C   0  0  0  0  0  0  0  0  0  0  0  0
   -7.8003    5.6658  -10.9978 C   0  0  0  0  0  0  0  0  0  0  0  0
   -7.9997    5.8301   -9.6388 C   0  0  0  0  0  0  0  0  0  0  0  0
   -8.3734    4.7100   -8.9400 C   0  0  0  0  0  0  0  0  0  0  0  0
   -8.5650    3.4504   -9.5129 C   0  0  0  0  0  0  0  0  0  0  0  0
   -8.3769    3.2868  -10.8775 C   0  0  0  0  0  0  0  0  0  0  0  0
   -8.9783    2.4812   -8.4457 C   0  0  0  0  0  0  0  0  0  0  0  0
   -8.8944    3.3157   -7.2451 N   0  0  0  0  0  0  0  0  0  0  0  0
   -9.1333    2.8311   -5.9083 C   0  0  1  0  0  0  0  0  0  0  0  0
   -8.1247    3.3517   -4.8814 C   0  0  0  0  0  0  0  0  0  0  0  0
   -8.9657    3.8185   -3.7406 C   0  0  0  0  0  0  0  0  0  0  0  0
   -8.5513    4.1134   -2.6296 O   0  0  0  0  0  0  0  0  0  0  0  0
  -10.2572    3.8546   -4.1286 N   0  0  0  0  0  0  0  0  0  0  0  0
  -10.4593    3.3065   -5.3518 C   0  0  0  0  0  0  0  0  0  0  0  0
  -11.5516    3.2329   -5.8858 O   0  0  0  0  0  0  0  0  0  0  0  0
   -8.6345    4.6340   -7.5162 C   0  0  0  0  0  0  0  0  0  0  0  0
   -8.6103    5.5786   -6.7495 O   0  0  0  0  0  0  0  0  0  0  0  0
   -8.2059    4.2261  -16.0011 C   0  0  0  0  0  0  0  0  0  0  0  0
   -8.1434    4.0050  -17.3804 C   0  0  0  0  0  0  0  0  0  0  0  0
   -9.2669    3.3286  -18.1260 C   0  0  0  0  0  0  0  0  0  0  0  0
  -10.6498    3.9159  -18.2317 C   0  0  0  0  0  0  0  0  0  0  0  0
   -9.7225    4.0252  -19.3899 C   0  0  0  0  0  0  0  0  0  0  0  0
   -7.1074    4.4225  -18.1505 N   0  0  0  0  0  0  0  0  0  0  0  0
   -6.1295    5.0662  -17.5034 C   0  0  0  0  0  0  0  0  0  0  0  0
  1  2  1  0
  2  3  1  0
  3  4  1  0
  4  5  1  0
  5  6  2  0
  6  7  1  0
  7  8  2  0
  8  9  1  0
  9 10  2  0
  9 11  1  0
 11 12  1  0
 12 13  2  0
 13 14  1  0
 14 15  2  0
 15 16  1  0
 16 17  2  0
 16 18  1  0
 18 19  1  0
 20 19  1  6
 20 21  1  0
 21 22  1  0
 22 23  2  0
 22 24  1  0
 24 25  1  0
 25 26  2  0
 19 27  1  0
 27 28  2  0
  8 29  1  0
 29 30  2  0
 30 31  1  0
 31 32  1  0
 32 33  1  0
 30 34  1  0
 34 35  2  0
 35  4  1  0
 35  7  1  0
 17 12  1  0
 25 20  1  0
 33 31  1  0
 27 15  1  0
M  END
>  <name>  (937) 
P125994

>  <alias>  (937) 
None

>  <smina_score_min>  (937) 
-9.136

>  <exports>  (937) 
['/opt/xchem-fragalysis-2/maxwin/BulkDock/OUTPUTS/openbind_xx01zvns2b_c2_elabs_1LOUTNY.sdf', '/opt/xchem-fragalysis-2/maxwin/BulkDock/OUTPUTS/openbind_xx01zvns2b_c2_elabs_1LSYIIV.sdf']

>  <tags>  (937) 
syndirella_placed,openbind_xx01zvns2b_c2_elabs,openbind_xx01zvns2b_c2_elabs_scored_6.2plus,syndirella_product,openbind_xx01zvns2b_c2_elabs_scored,openbind_xx01zvns2b_c2_elabs_scored_top80percent,BulkDock Fragalysis export

>  <subsites>  (937) 
1 - Z4590/B/203/1

>  <smiles>  (937) 
CCCn1ncc2c(C(=O)Nc3ccc4c(c3)CN([C@H]3CC(=O)NC3=O)C4=O)cc(C3CC3)nc21

>  <HIPPO Pose ID>  (937) 
125994

>  <energy_score>  (937) 
-26.044941

>  <inchikey>  (937) 
NZHDNSRLAYXECQ-FQEVSTJZSA-N

>  <gnina_score_min>  (937) 
6.625

>  <gnina_score>  (937) 
6.582

>  <ref_mols>  (937) 
Z3559a

>  <HIPPO Compound ID>  (937) 
188165

>  <distance_score>  (937) 
0.753728

>  <rmsd(smina/fragmenstein)>  (937) 
0.446

>  <ref_pdb>  (937) 
Z3559a

>  <inspiration_score>  (937) 
None

$$$$
P125995
     RDKit          3D

 35 40  0  0  0  0  0  0  0  0999 V2000
   -3.7047    6.2818  -15.1181 C   0  0  0  0  0  0  0  0  0  0  0  0
   -4.5198    5.8184  -16.2689 C   0  0  0  0  0  0  0  0  0  0  0  0
   -3.9959    5.8656  -17.5044 N   0  0  0  0  0  0  0  0  0  0  0  0
   -4.9841    5.3781  -18.2882 N   0  0  0  0  0  0  0  0  0  0  0  0
   -4.8273    5.3562  -19.7191 C   0  0  0  0  0  0  0  0  0  0  0  0
   -6.0955    4.9956  -17.5980 C   0  0  0  0  0  0  0  0  0  0  0  0
   -7.2149    4.4675  -18.1128 N   0  0  0  0  0  0  0  0  0  0  0  0
   -8.2133    4.2320  -17.2328 C   0  0  0  0  0  0  0  0  0  0  0  0
   -9.5340    3.7359  -17.7685 C   0  0  0  0  0  0  0  0  0  0  0  0
   -9.8930    3.9168  -19.2198 C   0  0  0  0  0  0  0  0  0  0  0  0
   -9.5585    2.5503  -18.6983 C   0  0  0  0  0  0  0  0  0  0  0  0
   -8.0828    4.4999  -15.8718 C   0  0  0  0  0  0  0  0  0  0  0  0
   -6.8898    5.0461  -15.3843 C   0  0  0  0  0  0  0  0  0  0  0  0
   -6.7938    5.5136  -13.9981 C   0  0  0  0  0  0  0  0  0  0  0  0
   -6.3639    6.5810  -13.8087 O   0  0  0  0  0  0  0  0  0  0  0  0
   -7.3441    4.4681  -13.0085 N   0  0  0  0  0  0  0  0  0  0  0  0
   -7.5606    4.5484  -11.6444 C   0  0  0  0  0  0  0  0  0  0  0  0
   -7.1882    5.7291  -10.9711 C   0  0  0  0  0  0  0  0  0  0  0  0
   -7.4657    5.9003   -9.6278 C   0  0  0  0  0  0  0  0  0  0  0  0
   -8.1243    4.8684   -9.0096 C   0  0  0  0  0  0  0  0  0  0  0  0
   -8.4929    3.6833   -9.6434 C   0  0  0  0  0  0  0  0  0  0  0  0
   -8.1966    3.4945  -10.9782 C   0  0  0  0  0  0  0  0  0  0  0  0
   -9.2449    2.8264   -8.6866 C   0  0  0  0  0  0  0  0  0  0  0  0
   -9.4310    3.7486   -7.5462 N   0  0  0  0  0  0  0  0  0  0  0  0
  -10.2040    3.3541   -6.3712 C   0  0  2  0  0  0  0  0  0  0  0  0
  -10.3331    4.3311   -5.2085 C   0  0  0  0  0  0  0  0  0  0  0  0
   -9.0607    4.5835   -4.4047 C   0  0  0  0  0  0  0  0  0  0  0  0
   -7.9326    3.6286   -4.6972 C   0  0  0  0  0  0  0  0  0  0  0  0
   -6.7876    3.8051   -4.2735 O   0  0  0  0  0  0  0  0  0  0  0  0
   -8.2398    2.4993   -5.3998 N   0  0  0  0  0  0  0  0  0  0  0  0
   -9.4554    2.1584   -5.9391 C   0  0  0  0  0  0  0  0  0  0  0  0
   -9.8290    1.0253   -6.2152 O   0  0  0  0  0  0  0  0  0  0  0  0
   -8.6803    4.8903   -7.6723 C   0  0  0  0  0  0  0  0  0  0  0  0
   -8.5344    5.8195   -6.9038 O   0  0  0  0  0  0  0  0  0  0  0  0
   -5.8443    5.2998  -16.2757 C   0  0  0  0  0  0  0  0  0  0  0  0
  1  2  1  0
  2  3  2  0
  3  4  1  0
  4  5  1  0
  4  6  1  0
  6  7  2  0
  7  8  1  0
  8  9  1  0
  9 10  1  0
 10 11  1  0
  8 12  2  0
 12 13  1  0
 13 14  1  0
 14 15  2  0
 14 16  1  0
 16 17  1  0
 17 18  2  0
 18 19  1  0
 19 20  2  0
 20 21  1  0
 21 22  2  0
 21 23  1  0
 23 24  1  0
 25 24  1  6
 25 26  1  0
 26 27  1  0
 27 28  1  0
 28 29  2  0
 28 30  1  0
 30 31  1  0
 31 32  2  0
 24 33  1  0
 33 34  2  0
 13 35  2  0
 35  2  1  0
 35  6  1  0
 11  9  1  0
 22 17  1  0
 31 25  1  0
 33 20  1  0
M  END
>  <name>  (938) 
P125995

>  <alias>  (938) 
None

>  <smina_score_min>  (938) 
-8.604

>  <exports>  (938) 
['/opt/xchem-fragalysis-2/maxwin/BulkDock/OUTPUTS/openbind_xx01zvns2b_c2_elabs_1LOUTNY.sdf', '/opt/xchem-fragalysis-2/maxwin/BulkDock/OUTPUTS/openbind_xx01zvns2b_c2_elabs_1LSYIIV.sdf']

>  <tags>  (938) 
syndirella_placed,openbind_xx01zvns2b_c2_elabs,openbind_xx01zvns2b_c2_elabs_scored_6.2plus,syndirella_product,openbind_xx01zvns2b_c2_elabs_scored,openbind_xx01zvns2b_c2_elabs_scored_top80percent,BulkDock Fragalysis export

>  <subsites>  (938) 
1 - Z4590/B/203/1

>  <smiles>  (938) 
Cc1nn(C)c2nc(C3CC3)cc(C(=O)Nc3ccc4c(c3)CN([C@@H]3CCC(=O)NC3=O)C4=O)c12

>  <HIPPO Pose ID>  (938) 
125995

>  <energy_score>  (938) 
-24.704232

>  <inchikey>  (938) 
SHKONCXPQPMNFL-LJQANCHMSA-N

>  <gnina_score_min>  (938) 
6.304

>  <gnina_score>  (938) 
6.37

>  <ref_mols>  (938) 
Z3559a

>  <HIPPO Compound ID>  (938) 
188167

>  <distance_score>  (938) 
0.859541

>  <rmsd(smina/fragmenstein)>  (938) 
0.895

>  <ref_pdb>  (938) 
Z3559a

>  <inspiration_score>  (938) 
None

$$$$
P126002
     RDKit          3D

 35 40  0  0  0  0  0  0  0  0999 V2000
   -4.2300    6.3012  -14.3096 C   0  0  0  0  0  0  0  0  0  0  0  0
   -4.6956    5.8599  -15.6483 C   0  0  0  0  0  0  0  0  0  0  0  0
   -3.8735    5.9726  -16.7070 N   0  0  0  0  0  0  0  0  0  0  0  0
   -4.6187    5.5110  -17.7350 N   0  0  0  0  0  0  0  0  0  0  0  0
   -4.1107    5.5579  -19.0820 C   0  0  0  0  0  0  0  0  0  0  0  0
   -5.8520    5.0768  -17.3604 C   0  0  0  0  0  0  0  0  0  0  0  0
   -6.7828    4.5727  -18.1703 N   0  0  0  0  0  0  0  0  0  0  0  0
   -7.9660    4.2764  -17.5987 C   0  0  0  0  0  0  0  0  0  0  0  0
   -8.9867    3.7989  -18.5940 C   0  0  0  0  0  0  0  0  0  0  0  0
  -10.4491    3.6512  -18.3334 C   0  0  0  0  0  0  0  0  0  0  0  0
   -9.5670    2.4297  -18.4113 C   0  0  0  0  0  0  0  0  0  0  0  0
   -8.2060    4.4546  -16.2279 C   0  0  0  0  0  0  0  0  0  0  0  0
   -7.1952    4.9930  -15.4219 C   0  0  0  0  0  0  0  0  0  0  0  0
   -7.4676    5.4913  -14.0669 C   0  0  0  0  0  0  0  0  0  0  0  0
   -7.2946    6.6350  -13.9029 O   0  0  0  0  0  0  0  0  0  0  0  0
   -7.8837    4.3872  -13.0676 N   0  0  0  0  0  0  0  0  0  0  0  0
   -8.0748    4.4404  -11.6870 C   0  0  0  0  0  0  0  0  0  0  0  0
   -7.8062    5.6721  -11.0424 C   0  0  0  0  0  0  0  0  0  0  0  0
   -7.9383    5.8227   -9.6718 C   0  0  0  0  0  0  0  0  0  0  0  0
   -8.3430    4.7112   -8.9795 C   0  0  0  0  0  0  0  0  0  0  0  0
   -8.6248    3.4945   -9.5759 C   0  0  0  0  0  0  0  0  0  0  0  0
   -8.4938    3.3236  -10.9470 C   0  0  0  0  0  0  0  0  0  0  0  0
   -9.0622    2.5990   -8.4924 C   0  0  0  0  0  0  0  0  0  0  0  0
   -9.5150    1.4872   -8.6652 O   0  0  0  0  0  0  0  0  0  0  0  0
   -8.8916    3.2989   -7.3231 N   0  0  0  0  0  0  0  0  0  0  0  0
   -9.1569    2.8091   -5.9908 C   0  0  1  0  0  0  0  0  0  0  0  0
   -8.1392    3.2860   -4.9509 C   0  0  0  0  0  0  0  0  0  0  0  0
   -8.9683    3.7274   -3.7914 C   0  0  0  0  0  0  0  0  0  0  0  0
   -8.5372    4.0387   -2.6920 O   0  0  0  0  0  0  0  0  0  0  0  0
  -10.2635    3.7644   -4.1664 N   0  0  0  0  0  0  0  0  0  0  0  0
  -10.4568    3.3578   -5.4447 C   0  0  0  0  0  0  0  0  0  0  0  0
  -11.5175    3.4779   -6.0293 O   0  0  0  0  0  0  0  0  0  0  0  0
   -8.5754    4.5983   -7.5604 C   0  0  0  0  0  0  0  0  0  0  0  0
   -8.5122    5.5374   -6.7879 O   0  0  0  0  0  0  0  0  0  0  0  0
   -5.9570    5.3049  -16.0065 C   0  0  0  0  0  0  0  0  0  0  0  0
  1  2  1  0
  2  3  2  0
  3  4  1  0
  4  5  1  0
  4  6  1  0
  6  7  2  0
  7  8  1  0
  8  9  1  0
  9 10  1  0
 10 11  1  0
  8 12  2  0
 12 13  1  0
 13 14  1  0
 14 15  2  0
 14 16  1  0
 16 17  1  0
 17 18  2  0
 18 19  1  0
 19 20  2  0
 20 21  1  0
 21 22  2  0
 21 23  1  0
 23 24  2  0
 23 25  1  0
 26 25  1  6
 26 27  1  0
 27 28  1  0
 28 29  2  0
 28 30  1  0
 30 31  1  0
 31 32  2  0
 25 33  1  0
 33 34  2  0
 13 35  2  0
 35  2  1  0
 35  6  1  0
 11  9  1  0
 22 17  1  0
 31 26  1  0
 33 20  1  0
M  END
>  <name>  (939) 
P126002

>  <alias>  (939) 
None

>  <smina_score_min>  (939) 
-10.291

>  <exports>  (939) 
['/opt/xchem-fragalysis-2/maxwin/BulkDock/OUTPUTS/openbind_xx01zvns2b_c2_elabs_1LOUTNY.sdf', '/opt/xchem-fragalysis-2/maxwin/BulkDock/OUTPUTS/openbind_xx01zvns2b_c2_elabs_1LSYIIV.sdf']

>  <tags>  (939) 
syndirella_placed,openbind_xx01zvns2b_c2_elabs,openbind_xx01zvns2b_c2_elabs_scored_6.2plus,syndirella_product,openbind_xx01zvns2b_c2_elabs_scored,openbind_xx01zvns2b_c2_elabs_scored_top80percent,BulkDock Fragalysis export

>  <subsites>  (939) 
1 - Z4590/B/203/1

>  <smiles>  (939) 
Cc1nn(C)c2nc(C3CC3)cc(C(=O)Nc3ccc4c(c3)C(=O)N([C@H]3CC(=O)NC3=O)C4=O)c12

>  <HIPPO Pose ID>  (939) 
126002

>  <energy_score>  (939) 
-43.906248

>  <inchikey>  (939) 
UQPJGQHMVQXFMA-KRWDZBQOSA-N

>  <gnina_score_min>  (939) 
6.264

>  <gnina_score>  (939) 
6.35

>  <ref_mols>  (939) 
Z3559a

>  <HIPPO Compound ID>  (939) 
188169

>  <distance_score>  (939) 
0.77939

>  <rmsd(smina/fragmenstein)>  (939) 
0.656

>  <ref_pdb>  (939) 
Z3559a

>  <inspiration_score>  (939) 
None

$$$$
P126003
     RDKit          3D

 35 40  0  0  0  0  0  0  0  0999 V2000
   -4.0864    6.1974  -14.5573 C   0  0  0  0  0  0  0  0  0  0  0  0
   -4.6274    5.7993  -15.8816 C   0  0  0  0  0  0  0  0  0  0  0  0
   -3.8480    5.9181  -16.9705 N   0  0  0  0  0  0  0  0  0  0  0  0
   -4.6386    5.4810  -17.9725 N   0  0  0  0  0  0  0  0  0  0  0  0
   -4.1804    5.5443  -19.3352 C   0  0  0  0  0  0  0  0  0  0  0  0
   -5.8615    5.0546  -17.5579 C   0  0  0  0  0  0  0  0  0  0  0  0
   -6.8251    4.5569  -18.3326 N   0  0  0  0  0  0  0  0  0  0  0  0
   -7.9875    4.2670  -17.7128 C   0  0  0  0  0  0  0  0  0  0  0  0
   -9.0414    3.7687  -18.6593 C   0  0  0  0  0  0  0  0  0  0  0  0
   -9.6118    2.4062  -18.4110 C   0  0  0  0  0  0  0  0  0  0  0  0
  -10.4922    3.6300  -18.3390 C   0  0  0  0  0  0  0  0  0  0  0  0
   -8.1823    4.4523  -16.3355 C   0  0  0  0  0  0  0  0  0  0  0  0
   -7.1416    4.9873  -15.5754 C   0  0  0  0  0  0  0  0  0  0  0  0
   -7.3186    5.4724  -14.2048 C   0  0  0  0  0  0  0  0  0  0  0  0
   -7.0104    6.5871  -14.0356 O   0  0  0  0  0  0  0  0  0  0  0  0
   -7.7863    4.3974  -13.1959 N   0  0  0  0  0  0  0  0  0  0  0  0
   -7.8778    4.4398  -11.8065 C   0  0  0  0  0  0  0  0  0  0  0  0
   -7.2651    5.5638  -11.2050 C   0  0  0  0  0  0  0  0  0  0  0  0
   -7.0899    5.6483   -9.8442 C   0  0  0  0  0  0  0  0  0  0  0  0
   -7.5998    4.6104   -9.1124 C   0  0  0  0  0  0  0  0  0  0  0  0
   -8.3104    3.5545   -9.6398 C   0  0  0  0  0  0  0  0  0  0  0  0
   -8.4302    3.4149  -11.0185 C   0  0  0  0  0  0  0  0  0  0  0  0
   -8.8854    2.8442   -8.4795 C   0  0  0  0  0  0  0  0  0  0  0  0
   -9.6723    1.9269   -8.6164 O   0  0  0  0  0  0  0  0  0  0  0  0
   -8.4179    3.4988   -7.3437 N   0  0  0  0  0  0  0  0  0  0  0  0
   -8.9408    3.4526   -6.0304 C   0  0  0  0  0  0  0  0  0  0  0  0
  -10.2062    2.9345   -5.7853 C   0  0  0  0  0  0  0  0  0  0  0  0
  -10.8289    3.2224   -4.5766 C   0  0  0  0  0  0  0  0  0  0  0  0
  -10.1815    3.9921   -3.6065 C   0  0  0  0  0  0  0  0  0  0  0  0
  -10.7957    4.3001   -2.4563 F   0  0  0  0  0  0  0  0  0  0  0  0
   -8.8846    4.4062   -3.7747 C   0  0  0  0  0  0  0  0  0  0  0  0
   -8.2667    4.1197   -4.9785 C   0  0  0  0  0  0  0  0  0  0  0  0
   -7.5603    4.5072   -7.6866 C   0  0  0  0  0  0  0  0  0  0  0  0
   -6.8804    5.2935   -7.0455 O   0  0  0  0  0  0  0  0  0  0  0  0
   -5.9162    5.2788  -16.2018 C   0  0  0  0  0  0  0  0  0  0  0  0
  1  2  1  0
  2  3  2  0
  3  4  1  0
  4  5  1  0
  4  6  1  0
  6  7  2  0
  7  8  1  0
  8  9  1  0
  9 10  1  0
 10 11  1  0
  8 12  2  0
 12 13  1  0
 13 14  1  0
 14 15  2  0
 14 16  1  0
 16 17  1  0
 17 18  2  0
 18 19  1  0
 19 20  2  0
 20 21  1  0
 21 22  2  0
 21 23  1  0
 23 24  2  0
 23 25  1  0
 25 26  1  0
 26 27  2  0
 27 28  1  0
 28 29  2  0
 29 30  1  0
 29 31  1  0
 31 32  2  0
 25 33  1  0
 33 34  2  0
 13 35  2  0
 35  2  1  0
 35  6  1  0
 11  9  1  0
 22 17  1  0
 32 26  1  0
 33 20  1  0
M  END
>  <name>  (940) 
P126003

>  <alias>  (940) 
None

>  <smina_score_min>  (940) 
-10.257

>  <exports>  (940) 
['/opt/xchem-fragalysis-2/maxwin/BulkDock/OUTPUTS/openbind_xx01zvns2b_c2_elabs_1LOUTNY.sdf', '/opt/xchem-fragalysis-2/maxwin/BulkDock/OUTPUTS/openbind_xx01zvns2b_c2_elabs_1LSYIIV.sdf']

>  <tags>  (940) 
syndirella_placed,openbind_xx01zvns2b_c2_elabs,openbind_xx01zvns2b_c2_elabs_scored_6.2plus,syndirella_product,openbind_xx01zvns2b_c2_elabs_scored,openbind_xx01zvns2b_c2_elabs_scored_top80percent,BulkDock Fragalysis export

>  <subsites>  (940) 
1 - Z4590/B/203/1

>  <smiles>  (940) 
Cc1nn(C)c2nc(C3CC3)cc(C(=O)Nc3ccc4c(c3)C(=O)N(c3ccc(F)cc3)C4=O)c12

>  <HIPPO Pose ID>  (940) 
126003

>  <energy_score>  (940) 
-43.418298

>  <inchikey>  (940) 
UKOMIOHMFPWIPM-UHFFFAOYSA-N

>  <gnina_score_min>  (940) 
6.4

>  <gnina_score>  (940) 
6.388

>  <ref_mols>  (940) 
Z3559a

>  <HIPPO Compound ID>  (940) 
188170

>  <distance_score>  (940) 
0.943823

>  <rmsd(smina/fragmenstein)>  (940) 
0.376

>  <ref_pdb>  (940) 
Z3559a

>  <inspiration_score>  (940) 
None

$$$$
P126004
     RDKit          3D

 35 40  0  0  0  0  0  0  0  0999 V2000
   -3.9557    6.1413  -14.8077 C   0  0  0  0  0  0  0  0  0  0  0  0
   -4.7147    5.7057  -16.0070 C   0  0  0  0  0  0  0  0  0  0  0  0
   -4.1407    5.8049  -17.2182 N   0  0  0  0  0  0  0  0  0  0  0  0
   -5.0881    5.3308  -18.0563 N   0  0  0  0  0  0  0  0  0  0  0  0
   -4.8791    5.3764  -19.4804 C   0  0  0  0  0  0  0  0  0  0  0  0
   -6.2198    4.9082  -17.4242 C   0  0  0  0  0  0  0  0  0  0  0  0
   -7.3134    4.3990  -18.0038 N   0  0  0  0  0  0  0  0  0  0  0  0
   -8.3524    4.1479  -17.1730 C   0  0  0  0  0  0  0  0  0  0  0  0
   -9.6511    3.7127  -17.7994 C   0  0  0  0  0  0  0  0  0  0  0  0
   -9.6625    2.5030  -18.6955 C   0  0  0  0  0  0  0  0  0  0  0  0
   -9.8800    3.8679  -19.2798 C   0  0  0  0  0  0  0  0  0  0  0  0
   -8.2885    4.3605  -15.7952 C   0  0  0  0  0  0  0  0  0  0  0  0
   -7.1241    4.8916  -15.2411 C   0  0  0  0  0  0  0  0  0  0  0  0
   -7.1289    5.4489  -13.8872 C   0  0  0  0  0  0  0  0  0  0  0  0
   -6.7300    6.5462  -13.8081 O   0  0  0  0  0  0  0  0  0  0  0  0
   -7.6777    4.4967  -12.7914 N   0  0  0  0  0  0  0  0  0  0  0  0
   -7.7573    4.6587  -11.4080 C   0  0  0  0  0  0  0  0  0  0  0  0
   -7.2632    5.8858  -10.9292 C   0  0  0  0  0  0  0  0  0  0  0  0
   -7.3028    6.2093   -9.5980 C   0  0  0  0  0  0  0  0  0  0  0  0
   -7.8748    5.2912   -8.7579 C   0  0  0  0  0  0  0  0  0  0  0  0
   -8.3749    4.0499   -9.1696 C   0  0  0  0  0  0  0  0  0  0  0  0
   -8.3020    3.7056  -10.5214 C   0  0  0  0  0  0  0  0  0  0  0  0
   -8.9600    3.3645   -7.9418 C   0  0  0  0  0  0  0  0  0  0  0  0
   -9.1123    4.5283   -6.9976 N   0  0  0  0  0  0  0  0  0  0  0  0
   -9.2939    4.5294   -5.6234 C   0  0  0  0  0  0  0  0  0  0  0  0
   -9.5718    5.7424   -4.9506 C   0  0  0  0  0  0  0  0  0  0  0  0
   -9.4958    5.8725   -3.5601 C   0  0  0  0  0  0  0  0  0  0  0  0
   -9.1984    4.7648   -2.7792 C   0  0  0  0  0  0  0  0  0  0  0  0
   -9.0697    4.8328   -1.2710 C   0  0  0  0  0  0  0  0  0  0  0  0
   -7.9605    5.7982   -0.8448 C   0  0  0  0  0  0  0  0  0  0  0  0
  -10.3950    5.1993   -0.6034 C   0  0  0  0  0  0  0  0  0  0  0  0
   -9.0310    3.5454   -3.4402 C   0  0  0  0  0  0  0  0  0  0  0  0
   -9.0962    3.4197   -4.8356 C   0  0  0  0  0  0  0  0  0  0  0  0
   -8.0986    5.5301   -7.3229 C   0  0  0  0  0  0  0  0  0  0  0  0
   -6.0325    5.1670  -16.0827 C   0  0  0  0  0  0  0  0  0  0  0  0
  1  2  1  0
  2  3  2  0
  3  4  1  0
  4  5  1  0
  4  6  1  0
  6  7  2  0
  7  8  1  0
  8  9  1  0
  9 10  1  0
 10 11  1  0
  8 12  2  0
 12 13  1  0
 13 14  1  0
 14 15  2  0
 14 16  1  0
 16 17  1  0
 17 18  2  0
 18 19  1  0
 19 20  2  0
 20 21  1  0
 21 22  2  0
 21 23  1  0
 23 24  1  0
 24 25  1  0
 25 26  2  0
 26 27  1  0
 27 28  2  0
 28 29  1  0
 29 30  1  0
 29 31  1  0
 28 32  1  0
 32 33  2  0
 24 34  1  0
 13 35  2  0
 35  2  1  0
 35  6  1  0
 11  9  1  0
 22 17  1  0
 33 25  1  0
 34 20  1  0
M  END
>  <name>  (941) 
P126004

>  <alias>  (941) 
None

>  <smina_score_min>  (941) 
-9.532

>  <exports>  (941) 
['/opt/xchem-fragalysis-2/maxwin/BulkDock/OUTPUTS/openbind_xx01zvns2b_c2_elabs_1LOUTNY.sdf', '/opt/xchem-fragalysis-2/maxwin/BulkDock/OUTPUTS/openbind_xx01zvns2b_c2_elabs_1LSYIIV.sdf']

>  <tags>  (941) 
syndirella_placed,openbind_xx01zvns2b_c2_elabs,openbind_xx01zvns2b_c2_elabs_scored_6.2plus,syndirella_product,openbind_xx01zvns2b_c2_elabs_scored,openbind_xx01zvns2b_c2_elabs_scored_top80percent,BulkDock Fragalysis export

>  <subsites>  (941) 
1 - Z4590/B/203/1

>  <smiles>  (941) 
Cc1nn(C)c2nc(C3CC3)cc(C(=O)Nc3ccc4c(c3)CN(c3ccc(C(C)C)cc3)C4)c12

>  <HIPPO Pose ID>  (941) 
126004

>  <energy_score>  (941) 
-27.55646

>  <inchikey>  (941) 
GPJHAGIUIHRMFX-UHFFFAOYSA-N

>  <gnina_score_min>  (941) 
6.365

>  <gnina_score>  (941) 
6.352

>  <ref_mols>  (941) 
Z3559a

>  <HIPPO Compound ID>  (941) 
188171

>  <distance_score>  (941) 
0.983182

>  <rmsd(smina/fragmenstein)>  (941) 
0.922

>  <ref_pdb>  (941) 
Z3559a

>  <inspiration_score>  (941) 
None

$$$$
P126005
     RDKit          3D

 35 40  0  0  0  0  0  0  0  0999 V2000
   -3.9669    6.3904  -14.8460 C   0  0  0  0  0  0  0  0  0  0  0  0
   -4.6867    5.8848  -16.0415 C   0  0  0  0  0  0  0  0  0  0  0  0
   -4.0898    5.9350  -17.2440 N   0  0  0  0  0  0  0  0  0  0  0  0
   -5.0144    5.4125  -18.0803 N   0  0  0  0  0  0  0  0  0  0  0  0
   -4.7753    5.3983  -19.5001 C   0  0  0  0  0  0  0  0  0  0  0  0
   -6.1549    5.0054  -17.4538 C   0  0  0  0  0  0  0  0  0  0  0  0
   -7.2314    4.4525  -18.0314 N   0  0  0  0  0  0  0  0  0  0  0  0
   -8.2791    4.2129  -17.2095 C   0  0  0  0  0  0  0  0  0  0  0  0
   -9.5690    3.7236  -17.8186 C   0  0  0  0  0  0  0  0  0  0  0  0
   -9.5613    2.5061  -18.7037 C   0  0  0  0  0  0  0  0  0  0  0  0
   -9.8183    3.8606  -19.2966 C   0  0  0  0  0  0  0  0  0  0  0  0
   -8.2344    4.4873  -15.8447 C   0  0  0  0  0  0  0  0  0  0  0  0
   -7.0877    5.0660  -15.2936 C   0  0  0  0  0  0  0  0  0  0  0  0
   -7.1153    5.5704  -13.9170 C   0  0  0  0  0  0  0  0  0  0  0  0
   -6.8019    6.6775  -13.7274 O   0  0  0  0  0  0  0  0  0  0  0  0
   -7.6055    4.4883  -12.9349 N   0  0  0  0  0  0  0  0  0  0  0  0
   -7.8923    4.5647  -11.5821 C   0  0  0  0  0  0  0  0  0  0  0  0
   -7.7963    5.8126  -10.9244 C   0  0  0  0  0  0  0  0  0  0  0  0
   -8.0419    5.9308   -9.5621 C   0  0  0  0  0  0  0  0  0  0  0  0
   -8.3578    4.7707   -8.9018 C   0  0  0  0  0  0  0  0  0  0  0  0
   -8.4604    3.5468   -9.5378 C   0  0  0  0  0  0  0  0  0  0  0  0
   -8.2538    3.4060  -10.8919 C   0  0  0  0  0  0  0  0  0  0  0  0
   -8.7837    2.5686   -8.5105 C   0  0  0  0  0  0  0  0  0  0  0  0
   -9.1901    1.4494   -8.7411 O   0  0  0  0  0  0  0  0  0  0  0  0
   -8.6439    3.2210   -7.3165 N   0  0  0  0  0  0  0  0  0  0  0  0
   -8.8567    2.5751   -6.0524 C   0  0  2  0  0  0  0  0  0  0  0  0
  -10.3290    2.4517   -5.6940 C   0  0  0  0  0  0  0  0  0  0  0  0
  -10.8472    3.6213   -4.8763 C   0  0  0  0  0  0  0  0  0  0  0  0
   -9.8721    4.2016   -3.8557 C   0  0  0  0  0  0  0  0  0  0  0  0
   -8.6851    3.3967   -3.7392 N   0  0  0  0  0  0  0  0  0  0  0  0
   -8.0271    3.2937   -4.9545 C   0  0  0  0  0  0  0  0  0  0  0  0
   -6.8862    3.7388   -5.0780 O   0  0  0  0  0  0  0  0  0  0  0  0
   -8.6359    4.5666   -7.4948 C   0  0  0  0  0  0  0  0  0  0  0  0
   -8.8672    5.4705   -6.7142 O   0  0  0  0  0  0  0  0  0  0  0  0
   -5.9929    5.3291  -16.1214 C   0  0  0  0  0  0  0  0  0  0  0  0
  1  2  1  0
  2  3  2  0
  3  4  1  0
  4  5  1  0
  4  6  1  0
  6  7  2  0
  7  8  1  0
  8  9  1  0
  9 10  1  0
 10 11  1  0
  8 12  2  0
 12 13  1  0
 13 14  1  0
 14 15  2  0
 14 16  1  0
 16 17  1  0
 17 18  2  0
 18 19  1  0
 19 20  2  0
 20 21  1  0
 21 22  2  0
 21 23  1  0
 23 24  2  0
 23 25  1  0
 26 25  1  6
 26 27  1  0
 27 28  1  0
 28 29  1  0
 29 30  1  0
 30 31  1  0
 31 32  2  0
 25 33  1  0
 33 34  2  0
 13 35  2  0
 35  2  1  0
 35  6  1  0
 11  9  1  0
 22 17  1  0
 31 26  1  0
 33 20  1  0
M  END
>  <name>  (942) 
P126005

>  <alias>  (942) 
None

>  <smina_score_min>  (942) 
-9.697

>  <exports>  (942) 
['/opt/xchem-fragalysis-2/maxwin/BulkDock/OUTPUTS/openbind_xx01zvns2b_c2_elabs_1LOUTNY.sdf', '/opt/xchem-fragalysis-2/maxwin/BulkDock/OUTPUTS/openbind_xx01zvns2b_c2_elabs_1LSYIIV.sdf']

>  <tags>  (942) 
syndirella_placed,openbind_xx01zvns2b_c2_elabs,openbind_xx01zvns2b_c2_elabs_scored_6.2plus,syndirella_product,openbind_xx01zvns2b_c2_elabs_scored,openbind_xx01zvns2b_c2_elabs_scored_top80percent,BulkDock Fragalysis export

>  <subsites>  (942) 
1 - Z4590/B/203/1

>  <smiles>  (942) 
Cc1nn(C)c2nc(C3CC3)cc(C(=O)Nc3ccc4c(c3)C(=O)N([C@@H]3CCCNC3=O)C4=O)c12

>  <HIPPO Pose ID>  (942) 
126005

>  <energy_score>  (942) 
-31.038102

>  <inchikey>  (942) 
IKMIMXRMKYDURG-LJQANCHMSA-N

>  <gnina_score_min>  (942) 
6.312

>  <gnina_score>  (942) 
6.33

>  <ref_mols>  (942) 
Z3559a

>  <HIPPO Compound ID>  (942) 
188172

>  <distance_score>  (942) 
0.657261

>  <rmsd(smina/fragmenstein)>  (942) 
0.724

>  <ref_pdb>  (942) 
Z3559a

>  <inspiration_score>  (942) 
None

$$$$
P126007
     RDKit          3D

 35 40  0  0  0  0  0  0  0  0999 V2000
   -3.9481    6.3000  -14.8505 C   0  0  0  0  0  0  0  0  0  0  0  0
   -4.6910    5.8294  -16.0464 C   0  0  0  0  0  0  0  0  0  0  0  0
   -4.1016    5.8895  -17.2526 N   0  0  0  0  0  0  0  0  0  0  0  0
   -5.0376    5.3881  -18.0881 N   0  0  0  0  0  0  0  0  0  0  0  0
   -4.8081    5.3864  -19.5095 C   0  0  0  0  0  0  0  0  0  0  0  0
   -6.1784    4.9866  -17.4591 C   0  0  0  0  0  0  0  0  0  0  0  0
   -7.2610    4.4484  -18.0373 N   0  0  0  0  0  0  0  0  0  0  0  0
   -8.3074    4.2108  -17.2133 C   0  0  0  0  0  0  0  0  0  0  0  0
   -9.5984    3.7291  -17.8244 C   0  0  0  0  0  0  0  0  0  0  0  0
   -9.8416    3.8619  -19.3037 C   0  0  0  0  0  0  0  0  0  0  0  0
   -9.5921    2.5085  -18.7052 C   0  0  0  0  0  0  0  0  0  0  0  0
   -8.2597    4.4789  -15.8471 C   0  0  0  0  0  0  0  0  0  0  0  0
   -7.1067    5.0418  -15.2936 C   0  0  0  0  0  0  0  0  0  0  0  0
   -7.1174    5.5445  -13.9147 C   0  0  0  0  0  0  0  0  0  0  0  0
   -6.7037    6.6193  -13.7265 O   0  0  0  0  0  0  0  0  0  0  0  0
   -7.6849    4.5037  -12.9264 N   0  0  0  0  0  0  0  0  0  0  0  0
   -7.9401    4.5984  -11.5673 C   0  0  0  0  0  0  0  0  0  0  0  0
   -7.6545    5.8117  -10.9082 C   0  0  0  0  0  0  0  0  0  0  0  0
   -7.7900    5.9371   -9.5333 C   0  0  0  0  0  0  0  0  0  0  0  0
   -8.2199    4.8296   -8.8439 C   0  0  0  0  0  0  0  0  0  0  0  0
   -8.5556    3.6458   -9.5018 C   0  0  0  0  0  0  0  0  0  0  0  0
   -8.4257    3.4943  -10.8670 C   0  0  0  0  0  0  0  0  0  0  0  0
   -8.9857    2.6841   -8.4836 C   0  0  0  0  0  0  0  0  0  0  0  0
   -9.4314    1.5791   -8.7109 O   0  0  0  0  0  0  0  0  0  0  0  0
   -8.8025    3.3095   -7.2565 N   0  0  0  0  0  0  0  0  0  0  0  0
   -8.8555    2.5899   -5.9983 C   0  0  2  0  0  0  0  0  0  0  0  0
  -10.3009    2.3578   -5.5805 C   0  0  0  0  0  0  0  0  0  0  0  0
  -10.8439    3.5497   -4.8271 C   0  0  0  0  0  0  0  0  0  0  0  0
   -9.9225    4.0593   -3.7476 C   0  0  0  0  0  0  0  0  0  0  0  0
  -10.2142    4.9627   -2.9701 O   0  0  0  0  0  0  0  0  0  0  0  0
   -8.6850    3.5235   -3.6960 N   0  0  0  0  0  0  0  0  0  0  0  0
   -8.0438    3.2815   -4.8684 C   0  0  0  0  0  0  0  0  0  0  0  0
   -6.8904    3.7108   -4.9677 O   0  0  0  0  0  0  0  0  0  0  0  0
   -8.3228    4.6635   -7.3779 C   0  0  0  0  0  0  0  0  0  0  0  0
   -6.0086    5.2963  -16.1245 C   0  0  0  0  0  0  0  0  0  0  0  0
  1  2  1  0
  2  3  2  0
  3  4  1  0
  4  5  1  0
  4  6  1  0
  6  7  2  0
  7  8  1  0
  8  9  1  0
  9 10  1  0
 10 11  1  0
  8 12  2  0
 12 13  1  0
 13 14  1  0
 14 15  2  0
 14 16  1  0
 16 17  1  0
 17 18  2  0
 18 19  1  0
 19 20  2  0
 20 21  1  0
 21 22  2  0
 21 23  1  0
 23 24  2  0
 23 25  1  0
 26 25  1  6
 26 27  1  0
 27 28  1  0
 28 29  1  0
 29 30  2  0
 29 31  1  0
 31 32  1  0
 32 33  2  0
 25 34  1  0
 13 35  2  0
 35  2  1  0
 35  6  1  0
 11  9  1  0
 22 17  1  0
 32 26  1  0
 34 20  1  0
M  END
>  <name>  (943) 
P126007

>  <alias>  (943) 
None

>  <smina_score_min>  (943) 
-9.735

>  <exports>  (943) 
['/opt/xchem-fragalysis-2/maxwin/BulkDock/OUTPUTS/openbind_xx01zvns2b_c2_elabs_1LOUTNY.sdf', '/opt/xchem-fragalysis-2/maxwin/BulkDock/OUTPUTS/openbind_xx01zvns2b_c2_elabs_1LSYIIV.sdf']

>  <tags>  (943) 
syndirella_placed,openbind_xx01zvns2b_c2_elabs,openbind_xx01zvns2b_c2_elabs_scored_6.2plus,syndirella_product,openbind_xx01zvns2b_c2_elabs_scored,openbind_xx01zvns2b_c2_elabs_scored_top80percent,BulkDock Fragalysis export

>  <subsites>  (943) 
1 - Z4590/B/203/1

>  <smiles>  (943) 
Cc1nn(C)c2nc(C3CC3)cc(C(=O)Nc3ccc4c(c3)C(=O)N([C@@H]3CCC(=O)NC3=O)C4)c12

>  <HIPPO Pose ID>  (943) 
126007

>  <energy_score>  (943) 
-51.061142

>  <inchikey>  (943) 
BXTRUXKFEAJLLZ-LJQANCHMSA-N

>  <gnina_score_min>  (943) 
6.312

>  <gnina_score>  (943) 
6.37

>  <ref_mols>  (943) 
Z3559a

>  <HIPPO Compound ID>  (943) 
188173

>  <distance_score>  (943) 
0.672144

>  <rmsd(smina/fragmenstein)>  (943) 
0.769

>  <ref_pdb>  (943) 
Z3559a

>  <inspiration_score>  (943) 
None

$$$$
P126009
     RDKit          3D

 35 40  0  0  0  0  0  0  0  0999 V2000
   -6.4262    6.2984  -13.5898 O   0  0  0  0  0  0  0  0  0  0  0  0
   -6.9767    5.2901  -13.8039 C   0  0  0  0  0  0  0  0  0  0  0  0
   -7.7320    4.3374  -12.8473 N   0  0  0  0  0  0  0  0  0  0  0  0
   -7.8806    4.3766  -11.4657 C   0  0  0  0  0  0  0  0  0  0  0  0
   -7.4406    5.5261  -10.7843 C   0  0  0  0  0  0  0  0  0  0  0  0
   -7.5520    5.6295   -9.4086 C   0  0  0  0  0  0  0  0  0  0  0  0
   -8.1202    4.5694   -8.7427 C   0  0  0  0  0  0  0  0  0  0  0  0
   -8.5808    3.4246   -9.3963 C   0  0  0  0  0  0  0  0  0  0  0  0
   -8.4622    3.3073  -10.7722 C   0  0  0  0  0  0  0  0  0  0  0  0
   -9.1526    2.4881   -8.3667 C   0  0  0  0  0  0  0  0  0  0  0  0
   -9.2957    3.3451   -7.1582 N   0  0  0  0  0  0  0  0  0  0  0  0
   -9.2079    2.6337   -5.8716 C   0  0  0  0  0  0  0  0  0  0  0  0
   -8.8363    3.4913   -4.6308 C   0  0  0  0  0  0  0  0  0  0  0  0
   -7.4898    3.7176   -4.5873 F   0  0  0  0  0  0  0  0  0  0  0  0
   -9.1652    2.9346   -3.4494 F   0  0  0  0  0  0  0  0  0  0  0  0
   -9.4376    4.7077   -4.6536 F   0  0  0  0  0  0  0  0  0  0  0  0
   -8.3164    4.4293   -7.2822 C   0  0  0  0  0  0  0  0  0  0  0  0
   -7.0500    4.8690  -15.2165 C   0  0  0  0  0  0  0  0  0  0  0  0
   -8.2181    4.3428  -15.7788 C   0  0  0  0  0  0  0  0  0  0  0  0
   -8.3138    4.1865  -17.1635 C   0  0  0  0  0  0  0  0  0  0  0  0
   -9.6128    3.7274  -17.7757 C   0  0  0  0  0  0  0  0  0  0  0  0
   -9.6125    2.5248  -18.6832 C   0  0  0  0  0  0  0  0  0  0  0  0
   -9.8705    3.8889  -19.2513 C   0  0  0  0  0  0  0  0  0  0  0  0
   -7.3084    4.5164  -18.0053 N   0  0  0  0  0  0  0  0  0  0  0  0
   -6.2146    5.0281  -17.4277 C   0  0  0  0  0  0  0  0  0  0  0  0
   -6.0026    5.2183  -16.0790 C   0  0  0  0  0  0  0  0  0  0  0  0
   -4.7261    5.8163  -16.0080 C   0  0  0  0  0  0  0  0  0  0  0  0
   -4.1914    6.0517  -17.2126 N   0  0  0  0  0  0  0  0  0  0  0  0
   -5.1419    5.5911  -18.0719 N   0  0  0  0  0  0  0  0  0  0  0  0
   -5.1930    6.0764  -19.4445 C   0  0  0  0  0  0  0  0  0  0  0  0
   -4.2078    5.4572  -20.3813 C   0  0  0  0  0  0  0  0  0  0  0  0
   -4.5767    4.8183  -21.6159 C   0  0  0  0  0  0  0  0  0  0  0  0
   -3.4850    4.4639  -22.3744 C   0  0  0  0  0  0  0  0  0  0  0  0
   -2.0176    4.8788  -21.6098 S   0  0  0  0  0  0  0  0  0  0  0  0
   -2.8324    5.5080  -20.2489 C   0  0  0  0  0  0  0  0  0  0  0  0
  1  2  2  0
  2  3  1  0
  3  4  1  0
  4  5  2  0
  5  6  1  0
  6  7  2  0
  7  8  1  0
  8  9  2  0
  8 10  1  0
 10 11  1  0
 11 12  1  0
 12 13  1  0
 13 14  1  0
 13 15  1  0
 13 16  1  0
 11 17  1  0
  2 18  1  0
 18 19  2  0
 19 20  1  0
 20 21  1  0
 21 22  1  0
 22 23  1  0
 20 24  2  0
 24 25  1  0
 25 26  2  0
 26 27  1  0
 27 28  2  0
 28 29  1  0
 29 30  1  0
 30 31  1  0
 31 32  1  0
 32 33  2  0
 33 34  1  0
 34 35  1  0
  9  4  1  0
 26 18  1  0
 35 31  2  0
 17  7  1  0
 23 21  1  0
 29 25  1  0
M  END
>  <name>  (944) 
P126009

>  <alias>  (944) 
None

>  <smina_score_min>  (944) 
-9.351

>  <exports>  (944) 
['/opt/xchem-fragalysis-2/maxwin/BulkDock/OUTPUTS/openbind_xx01zvns2b_c2_elabs_1LOUTNY.sdf', '/opt/xchem-fragalysis-2/maxwin/BulkDock/OUTPUTS/openbind_xx01zvns2b_c2_elabs_1LSYIIV.sdf']

>  <tags>  (944) 
syndirella_placed,openbind_xx01zvns2b_c2_elabs,openbind_xx01zvns2b_c2_elabs_scored_6.2plus,syndirella_product,openbind_xx01zvns2b_c2_elabs_scored,openbind_xx01zvns2b_c2_elabs_scored_top80percent,BulkDock Fragalysis export

>  <subsites>  (944) 
1 - Z4590/B/203/1

>  <smiles>  (944) 
O=C(Nc1ccc2c(c1)CN(CC(F)(F)F)C2)c1cc(C2CC2)nc2c1cnn2Cc1ccsc1

>  <HIPPO Pose ID>  (944) 
126009

>  <energy_score>  (944) 
-49.269168

>  <inchikey>  (944) 
FRRHYFRPNKXCQI-UHFFFAOYSA-N

>  <gnina_score_min>  (944) 
6.446

>  <gnina_score>  (944) 
6.533

>  <ref_mols>  (944) 
Z3559a

>  <HIPPO Compound ID>  (944) 
188175

>  <distance_score>  (944) 
0.585705

>  <rmsd(smina/fragmenstein)>  (944) 
0.817

>  <ref_pdb>  (944) 
Z3559a

>  <inspiration_score>  (944) 
None

$$$$
P126010
     RDKit          3D

 35 39  0  0  0  0  0  0  0  0999 V2000
   -3.5992    5.9603  -14.4326 C   0  0  0  0  0  0  0  0  0  0  0  0
   -4.4586    5.7907  -15.6320 C   0  0  0  0  0  0  0  0  0  0  0  0
   -3.9565    6.0964  -16.8423 N   0  0  0  0  0  0  0  0  0  0  0  0
   -5.0144    5.9055  -17.6708 N   0  0  0  0  0  0  0  0  0  0  0  0
   -5.0175    6.5174  -18.9840 C   0  0  0  0  0  0  0  0  0  0  0  0
   -5.1368    8.0489  -18.8665 C   0  0  0  0  0  0  0  0  0  0  0  0
   -6.1021    8.6014  -19.3162 O   0  0  0  0  0  0  0  0  0  0  0  0
   -3.9660    8.5819  -18.2204 N   0  0  0  0  0  0  0  0  0  0  0  0
   -3.5445    9.9458  -17.9973 C   0  0  0  0  0  0  0  0  0  0  0  0
   -2.8226   10.4831  -19.2279 C   0  0  0  0  0  0  0  0  0  0  0  0
   -2.6653   10.0373  -16.7568 C   0  0  0  0  0  0  0  0  0  0  0  0
   -6.0670    5.2819  -17.0691 C   0  0  0  0  0  0  0  0  0  0  0  0
   -7.1696    4.8283  -17.6762 N   0  0  0  0  0  0  0  0  0  0  0  0
   -8.1408    4.3665  -16.8595 C   0  0  0  0  0  0  0  0  0  0  0  0
   -9.4139    3.8415  -17.4966 C   0  0  0  0  0  0  0  0  0  0  0  0
   -9.3364    2.7388  -18.5286 C   0  0  0  0  0  0  0  0  0  0  0  0
   -9.7373    4.1196  -18.9457 C   0  0  0  0  0  0  0  0  0  0  0  0
   -8.0276    4.4311  -15.4649 C   0  0  0  0  0  0  0  0  0  0  0  0
   -6.8541    4.9206  -14.8623 C   0  0  0  0  0  0  0  0  0  0  0  0
   -6.7676    5.1863  -13.3990 C   0  0  0  0  0  0  0  0  0  0  0  0
   -6.1879    6.1926  -13.1047 O   0  0  0  0  0  0  0  0  0  0  0  0
   -7.4093    4.1987  -12.5774 N   0  0  0  0  0  0  0  0  0  0  0  0
   -7.6313    4.1576  -11.1997 C   0  0  0  0  0  0  0  0  0  0  0  0
   -7.1441    5.1851  -10.3588 C   0  0  0  0  0  0  0  0  0  0  0  0
   -7.3719    5.1688   -8.9782 C   0  0  0  0  0  0  0  0  0  0  0  0
   -8.0963    4.1111   -8.4749 C   0  0  0  0  0  0  0  0  0  0  0  0
   -8.5784    3.1066   -9.2919 C   0  0  0  0  0  0  0  0  0  0  0  0
   -8.3599    3.0940  -10.6594 C   0  0  0  0  0  0  0  0  0  0  0  0
   -9.3666    2.2096   -8.4522 C   0  0  0  0  0  0  0  0  0  0  0  0
   -9.9876    1.2586   -8.8804 O   0  0  0  0  0  0  0  0  0  0  0  0
   -9.3055    2.7069   -7.1793 N   0  0  0  0  0  0  0  0  0  0  0  0
  -10.0569    2.1571   -6.0810 C   0  0  0  0  0  0  0  0  0  0  0  0
   -8.5550    3.8444   -7.1127 C   0  0  0  0  0  0  0  0  0  0  0  0
   -8.3094    4.5663   -6.1624 O   0  0  0  0  0  0  0  0  0  0  0  0
   -5.8031    5.3158  -15.7116 C   0  0  0  0  0  0  0  0  0  0  0  0
  1  2  1  0
  2  3  2  0
  3  4  1  0
  4  5  1  0
  5  6  1  0
  6  7  2  0
  6  8  1  0
  8  9  1  0
  9 10  1  0
  9 11  1  0
  4 12  1  0
 12 13  2  0
 13 14  1  0
 14 15  1  0
 15 16  1  0
 16 17  1  0
 14 18  2  0
 18 19  1  0
 19 20  1  0
 20 21  2  0
 20 22  1  0
 22 23  1  0
 23 24  2  0
 24 25  1  0
 25 26  2  0
 26 27  1  0
 27 28  2  0
 27 29  1  0
 29 30  2  0
 29 31  1  0
 31 32  1  0
 31 33  1  0
 33 34  2  0
 19 35  2  0
 35  2  1  0
 35 12  1  0
 17 15  1  0
 28 23  1  0
 33 26  1  0
M  END
>  <name>  (945) 
P126010

>  <alias>  (945) 
None

>  <smina_score_min>  (945) 
-8.829

>  <exports>  (945) 
['/opt/xchem-fragalysis-2/maxwin/BulkDock/OUTPUTS/openbind_xx01zvns2b_c2_elabs_1LOUTNY.sdf', '/opt/xchem-fragalysis-2/maxwin/BulkDock/OUTPUTS/openbind_xx01zvns2b_c2_elabs_1LSYIIV.sdf']

>  <tags>  (945) 
syndirella_placed,openbind_xx01zvns2b_c2_elabs,openbind_xx01zvns2b_c2_elabs_scored_6.2plus,syndirella_product,openbind_xx01zvns2b_c2_elabs_scored,openbind_xx01zvns2b_c2_elabs_scored_top80percent,BulkDock Fragalysis export

>  <subsites>  (945) 
1 - Z4590/B/203/1

>  <smiles>  (945) 
Cc1nn(CC(=O)NC(C)C)c2nc(C3CC3)cc(C(=O)Nc3ccc4c(c3)C(=O)N(C)C4=O)c12

>  <HIPPO Pose ID>  (945) 
126010

>  <energy_score>  (945) 
-50.237962

>  <inchikey>  (945) 
BWIWHHGEVVEXCV-UHFFFAOYSA-N

>  <gnina_score_min>  (945) 
6.348

>  <gnina_score>  (945) 
6.416

>  <ref_mols>  (945) 
Z3559a

>  <HIPPO Compound ID>  (945) 
188177

>  <distance_score>  (945) 
0.573545

>  <rmsd(smina/fragmenstein)>  (945) 
1.09

>  <ref_pdb>  (945) 
Z3559a

>  <inspiration_score>  (945) 
None

$$$$
P126011
     RDKit          3D

 35 40  0  0  0  0  0  0  0  0999 V2000
  -10.8742    2.9084   -5.4381 C   0  0  0  0  0  0  0  0  0  0  0  0
   -9.6560    2.2543   -6.0589 C   0  0  0  0  0  0  0  0  0  0  0  0
   -9.2585    2.8883   -7.2868 N   0  0  0  0  0  0  0  0  0  0  0  0
   -9.1316    2.1492   -8.5346 C   0  0  0  0  0  0  0  0  0  0  0  0
   -8.5602    3.1820   -9.4476 C   0  0  0  0  0  0  0  0  0  0  0  0
   -8.3116    3.1304  -10.8078 C   0  0  0  0  0  0  0  0  0  0  0  0
   -7.7680    4.2683  -11.4162 C   0  0  0  0  0  0  0  0  0  0  0  0
   -7.5037    4.2482  -12.7812 N   0  0  0  0  0  0  0  0  0  0  0  0
   -7.0133    5.3677  -13.7240 C   0  0  0  0  0  0  0  0  0  0  0  0
   -6.6805    6.4618  -13.4905 O   0  0  0  0  0  0  0  0  0  0  0  0
   -7.0274    4.9443  -15.1366 C   0  0  0  0  0  0  0  0  0  0  0  0
   -8.1864    4.4013  -15.7065 C   0  0  0  0  0  0  0  0  0  0  0  0
   -8.2700    4.2367  -17.0901 C   0  0  0  0  0  0  0  0  0  0  0  0
   -9.5571    3.7498  -17.7132 C   0  0  0  0  0  0  0  0  0  0  0  0
   -9.8255    3.9395  -19.1847 C   0  0  0  0  0  0  0  0  0  0  0  0
   -9.5272    2.5702  -18.6523 C   0  0  0  0  0  0  0  0  0  0  0  0
   -7.2640    4.5886  -17.9190 N   0  0  0  0  0  0  0  0  0  0  0  0
   -6.1721    5.0966  -17.3315 C   0  0  0  0  0  0  0  0  0  0  0  0
   -5.9626    5.2880  -15.9801 C   0  0  0  0  0  0  0  0  0  0  0  0
   -4.6627    5.8573  -15.8990 C   0  0  0  0  0  0  0  0  0  0  0  0
   -3.8882    6.2277  -14.6884 C   0  0  0  0  0  0  0  0  0  0  0  0
   -4.1427    6.1013  -17.1128 N   0  0  0  0  0  0  0  0  0  0  0  0
   -5.0964    5.6541  -17.9707 N   0  0  0  0  0  0  0  0  0  0  0  0
   -5.1399    6.1509  -19.3370 C   0  0  0  0  0  0  0  0  0  0  0  0
   -4.2400    5.4477  -20.3102 C   0  0  0  0  0  0  0  0  0  0  0  0
   -2.8534    5.6481  -20.2846 C   0  0  0  0  0  0  0  0  0  0  0  0
   -2.0472    5.1176  -21.2908 C   0  0  0  0  0  0  0  0  0  0  0  0
   -2.6196    4.3825  -22.3262 C   0  0  0  0  0  0  0  0  0  0  0  0
   -3.9863    4.1245  -22.3251 C   0  0  0  0  0  0  0  0  0  0  0  0
   -4.7953    4.6573  -21.3258 C   0  0  0  0  0  0  0  0  0  0  0  0
   -7.4861    5.4265  -10.6639 C   0  0  0  0  0  0  0  0  0  0  0  0
   -7.7367    5.4712   -9.2958 C   0  0  0  0  0  0  0  0  0  0  0  0
   -8.2680    4.3379   -8.7237 C   0  0  0  0  0  0  0  0  0  0  0  0
   -8.6564    4.1279   -7.3313 C   0  0  0  0  0  0  0  0  0  0  0  0
   -8.4750    4.9269   -6.4310 O   0  0  0  0  0  0  0  0  0  0  0  0
  1  2  1  0
  2  3  1  0
  3  4  1  0
  4  5  1  0
  5  6  2  0
  6  7  1  0
  7  8  1  0
  8  9  1  0
  9 10  2  0
  9 11  1  0
 11 12  2  0
 12 13  1  0
 13 14  1  0
 14 15  1  0
 15 16  1  0
 13 17  2  0
 17 18  1  0
 18 19  2  0
 19 20  1  0
 20 21  1  0
 20 22  2  0
 22 23  1  0
 23 24  1  0
 24 25  1  0
 25 26  2  0
 26 27  1  0
 27 28  2  0
 28 29  1  0
 29 30  2  0
  7 31  2  0
 31 32  1  0
 32 33  2  0
 33 34  1  0
 34 35  2  0
 34  3  1  0
 33  5  1  0
 19 11  1  0
 30 25  1  0
 16 14  1  0
 23 18  1  0
M  END
>  <name>  (946) 
P126011

>  <alias>  (946) 
None

>  <smina_score_min>  (946) 
-10.136

>  <exports>  (946) 
['/opt/xchem-fragalysis-2/maxwin/BulkDock/OUTPUTS/openbind_xx01zvns2b_c2_elabs_1LOUTNY.sdf', '/opt/xchem-fragalysis-2/maxwin/BulkDock/OUTPUTS/openbind_xx01zvns2b_c2_elabs_1LSYIIV.sdf']

>  <tags>  (946) 
syndirella_placed,openbind_xx01zvns2b_c2_elabs,openbind_xx01zvns2b_c2_elabs_scored_6.2plus,syndirella_product,openbind_xx01zvns2b_c2_elabs_scored,openbind_xx01zvns2b_c2_elabs_scored_top80percent,BulkDock Fragalysis export

>  <subsites>  (946) 
1 - Z4590/B/203/1

>  <smiles>  (946) 
CCN1Cc2cc(NC(=O)c3cc(C4CC4)nc4c3c(C)nn4Cc3ccccc3)ccc2C1=O

>  <HIPPO Pose ID>  (946) 
126011

>  <energy_score>  (946) 
-40.086736

>  <inchikey>  (946) 
KAKZHIRISBFVLY-UHFFFAOYSA-N

>  <gnina_score_min>  (946) 
6.676

>  <gnina_score>  (946) 
6.664

>  <ref_mols>  (946) 
Z3559a

>  <HIPPO Compound ID>  (946) 
188178

>  <distance_score>  (946) 
0.494017

>  <rmsd(smina/fragmenstein)>  (946) 
0.338

>  <ref_pdb>  (946) 
Z3559a

>  <inspiration_score>  (946) 
None

$$$$
P126012
     RDKit          3D

 35 40  0  0  0  0  0  0  0  0999 V2000
   -4.0371    6.2944  -14.3839 C   0  0  0  0  0  0  0  0  0  0  0  0
   -4.7125    5.8602  -15.6327 C   0  0  0  0  0  0  0  0  0  0  0  0
   -4.0381    5.8943  -16.7907 N   0  0  0  0  0  0  0  0  0  0  0  0
   -4.9501    5.4899  -17.7106 N   0  0  0  0  0  0  0  0  0  0  0  0
   -4.5925    5.4415  -19.1218 C   0  0  0  0  0  0  0  0  0  0  0  0
   -4.6274    6.7803  -19.8330 C   0  0  0  0  0  0  0  0  0  0  0  0
   -5.0394    6.8234  -21.1747 C   0  0  0  0  0  0  0  0  0  0  0  0
   -5.0048    8.0152  -21.9031 C   0  0  0  0  0  0  0  0  0  0  0  0
   -4.5571    9.1873  -21.3013 C   0  0  0  0  0  0  0  0  0  0  0  0
   -4.1338    9.1632  -19.9753 C   0  0  0  0  0  0  0  0  0  0  0  0
   -4.1580    7.9678  -19.2508 C   0  0  0  0  0  0  0  0  0  0  0  0
   -6.1293    5.0744  -17.1523 C   0  0  0  0  0  0  0  0  0  0  0  0
   -7.1809    4.5370  -17.7915 N   0  0  0  0  0  0  0  0  0  0  0  0
   -8.2646    4.2769  -17.0185 C   0  0  0  0  0  0  0  0  0  0  0  0
   -9.5220    3.7749  -17.6979 C   0  0  0  0  0  0  0  0  0  0  0  0
   -9.4540    2.5985  -18.6390 C   0  0  0  0  0  0  0  0  0  0  0  0
   -9.7281    3.9696  -19.1788 C   0  0  0  0  0  0  0  0  0  0  0  0
   -8.2889    4.5421  -15.6453 C   0  0  0  0  0  0  0  0  0  0  0  0
   -7.1726    5.1124  -15.0269 C   0  0  0  0  0  0  0  0  0  0  0  0
   -7.2438    5.6269  -13.6463 C   0  0  0  0  0  0  0  0  0  0  0  0
   -6.9011    6.7282  -13.4661 O   0  0  0  0  0  0  0  0  0  0  0  0
   -7.7378    4.5567  -12.6491 N   0  0  0  0  0  0  0  0  0  0  0  0
   -7.9948    4.6430  -11.2830 C   0  0  0  0  0  0  0  0  0  0  0  0
   -7.7917    5.8570  -10.6034 C   0  0  0  0  0  0  0  0  0  0  0  0
   -7.9868    5.9597   -9.2245 C   0  0  0  0  0  0  0  0  0  0  0  0
   -8.3974    4.8354   -8.5369 C   0  0  0  0  0  0  0  0  0  0  0  0
   -8.6291    3.6330   -9.2199 C   0  0  0  0  0  0  0  0  0  0  0  0
   -8.4268    3.5132  -10.5883 C   0  0  0  0  0  0  0  0  0  0  0  0
   -9.0738    2.5907   -8.2470 C   0  0  0  0  0  0  0  0  0  0  0  0
   -9.3431    3.3554   -7.0093 N   0  0  0  0  0  0  0  0  0  0  0  0
   -9.2086    2.5432   -5.8291 C   0  0  0  0  0  0  0  0  0  0  0  0
   -8.5815    4.6243   -7.0501 C   0  0  0  0  0  0  0  0  0  0  0  0
   -9.3895    5.7066   -6.3085 C   0  0  0  0  0  0  0  0  0  0  0  0
   -7.1778    4.6401   -6.4156 C   0  0  0  0  0  0  0  0  0  0  0  0
   -6.0320    5.3603  -15.8021 C   0  0  0  0  0  0  0  0  0  0  0  0
  1  2  1  0
  2  3  2  0
  3  4  1  0
  4  5  1  0
  5  6  1  0
  6  7  2  0
  7  8  1  0
  8  9  2  0
  9 10  1  0
 10 11  2  0
  4 12  1  0
 12 13  2  0
 13 14  1  0
 14 15  1  0
 15 16  1  0
 16 17  1  0
 14 18  2  0
 18 19  1  0
 19 20  1  0
 20 21  2  0
 20 22  1  0
 22 23  1  0
 23 24  2  0
 24 25  1  0
 25 26  2  0
 26 27  1  0
 27 28  2  0
 27 29  1  0
 29 30  1  0
 30 31  1  0
 30 32  1  0
 32 33  1  0
 32 34  1  0
 19 35  2  0
 35  2  1  0
 11  6  1  0
 35 12  1  0
 17 15  1  0
 28 23  1  0
 32 26  1  0
M  END
>  <name>  (947) 
P126012

>  <alias>  (947) 
None

>  <smina_score_min>  (947) 
-8.404

>  <exports>  (947) 
['/opt/xchem-fragalysis-2/maxwin/BulkDock/OUTPUTS/openbind_xx01zvns2b_c2_elabs_1LOUTNY.sdf', '/opt/xchem-fragalysis-2/maxwin/BulkDock/OUTPUTS/openbind_xx01zvns2b_c2_elabs_1LSYIIV.sdf']

>  <tags>  (947) 
syndirella_placed,openbind_xx01zvns2b_c2_elabs,openbind_xx01zvns2b_c2_elabs_scored_6.2plus,syndirella_product,openbind_xx01zvns2b_c2_elabs_scored,openbind_xx01zvns2b_c2_elabs_scored_top80percent,BulkDock Fragalysis export

>  <subsites>  (947) 
1 - Z4590/B/203/1

>  <smiles>  (947) 
Cc1nn(Cc2ccccc2)c2nc(C3CC3)cc(C(=O)Nc3ccc4c(c3)CN(C)C4(C)C)c12

>  <HIPPO Pose ID>  (947) 
126012

>  <energy_score>  (947) 
-48.792916

>  <inchikey>  (947) 
WRUVVUCPRMOPLO-UHFFFAOYSA-N

>  <gnina_score_min>  (947) 
6.47

>  <gnina_score>  (947) 
6.709

>  <ref_mols>  (947) 
Z3559a

>  <HIPPO Compound ID>  (947) 
188181

>  <distance_score>  (947) 
0.624676

>  <rmsd(smina/fragmenstein)>  (947) 
0.8

>  <ref_pdb>  (947) 
Z3559a

>  <inspiration_score>  (947) 
None

$$$$
P126013
     RDKit          3D

 35 40  0  0  0  0  0  0  0  0999 V2000
  -10.8674    2.9337   -5.4612 C   0  0  0  0  0  0  0  0  0  0  0  0
   -9.7378    2.2060   -6.1597 C   0  0  0  0  0  0  0  0  0  0  0  0
   -9.3075    2.8710   -7.3612 N   0  0  0  0  0  0  0  0  0  0  0  0
   -8.5721    4.1129   -7.3280 C   0  0  0  0  0  0  0  0  0  0  0  0
   -8.2858    4.3457   -8.7679 C   0  0  0  0  0  0  0  0  0  0  0  0
   -7.7229    5.4434   -9.3788 C   0  0  0  0  0  0  0  0  0  0  0  0
   -7.5976    5.4157  -10.7694 C   0  0  0  0  0  0  0  0  0  0  0  0
   -8.0045    4.2960  -11.5262 C   0  0  0  0  0  0  0  0  0  0  0  0
   -7.8492    4.3006  -12.9092 N   0  0  0  0  0  0  0  0  0  0  0  0
   -7.2743    5.3803  -13.8494 C   0  0  0  0  0  0  0  0  0  0  0  0
   -6.9114    6.4661  -13.6221 O   0  0  0  0  0  0  0  0  0  0  0  0
   -7.1679    4.9144  -15.2489 C   0  0  0  0  0  0  0  0  0  0  0  0
   -8.2343    4.2776  -15.9029 C   0  0  0  0  0  0  0  0  0  0  0  0
   -8.1626    4.0569  -17.2800 C   0  0  0  0  0  0  0  0  0  0  0  0
   -9.2640    3.3582  -18.0380 C   0  0  0  0  0  0  0  0  0  0  0  0
   -9.6744    3.9970  -19.3476 C   0  0  0  0  0  0  0  0  0  0  0  0
  -10.6412    3.9390  -18.2177 C   0  0  0  0  0  0  0  0  0  0  0  0
   -7.1217    4.4803  -18.0319 N   0  0  0  0  0  0  0  0  0  0  0  0
   -6.1240    5.0711  -17.3646 C   0  0  0  0  0  0  0  0  0  0  0  0
   -6.0424    5.2873  -16.0042 C   0  0  0  0  0  0  0  0  0  0  0  0
   -4.7696    5.8994  -15.8231 C   0  0  0  0  0  0  0  0  0  0  0  0
   -4.0953    6.2886  -14.5592 C   0  0  0  0  0  0  0  0  0  0  0  0
   -4.1642    6.1606  -16.9933 N   0  0  0  0  0  0  0  0  0  0  0  0
   -5.0380    5.6935  -17.9196 N   0  0  0  0  0  0  0  0  0  0  0  0
   -5.0219    6.2417  -19.2655 C   0  0  0  0  0  0  0  0  0  0  0  0
   -4.2301    5.4616  -20.2716 C   0  0  0  0  0  0  0  0  0  0  0  0
   -2.8427    5.6238  -20.3749 C   0  0  0  0  0  0  0  0  0  0  0  0
   -2.1400    5.0175  -21.4156 C   0  0  0  0  0  0  0  0  0  0  0  0
   -2.8173    4.2419  -22.3539 C   0  0  0  0  0  0  0  0  0  0  0  0
   -4.1833    4.0185  -22.2172 C   0  0  0  0  0  0  0  0  0  0  0  0
   -4.8889    4.6258  -21.1826 C   0  0  0  0  0  0  0  0  0  0  0  0
   -8.5653    3.1864  -10.8995 C   0  0  0  0  0  0  0  0  0  0  0  0
   -8.7099    3.2536   -9.5266 C   0  0  0  0  0  0  0  0  0  0  0  0
   -9.3762    2.3127   -8.6229 C   0  0  0  0  0  0  0  0  0  0  0  0
   -9.9233    1.2878   -8.9708 O   0  0  0  0  0  0  0  0  0  0  0  0
  1  2  1  0
  2  3  1  0
  3  4  1  0
  4  5  1  0
  5  6  2  0
  6  7  1  0
  7  8  2  0
  8  9  1  0
  9 10  1  0
 10 11  2  0
 10 12  1  0
 12 13  2  0
 13 14  1  0
 14 15  1  0
 15 16  1  0
 16 17  1  0
 14 18  2  0
 18 19  1  0
 19 20  2  0
 20 21  1  0
 21 22  1  0
 21 23  2  0
 23 24  1  0
 24 25  1  0
 25 26  1  0
 26 27  2  0
 27 28  1  0
 28 29  2  0
 29 30  1  0
 30 31  2  0
  8 32  1  0
 32 33  2  0
 33 34  1  0
 34 35  2  0
 34  3  1  0
 33  5  1  0
 20 12  1  0
 31 26  1  0
 17 15  1  0
 24 19  1  0
M  END
>  <name>  (948) 
P126013

>  <alias>  (948) 
None

>  <smina_score_min>  (948) 
-9.996

>  <exports>  (948) 
['/opt/xchem-fragalysis-2/maxwin/BulkDock/OUTPUTS/openbind_xx01zvns2b_c2_elabs_1LOUTNY.sdf', '/opt/xchem-fragalysis-2/maxwin/BulkDock/OUTPUTS/openbind_xx01zvns2b_c2_elabs_1LSYIIV.sdf']

>  <tags>  (948) 
syndirella_placed,openbind_xx01zvns2b_c2_elabs,openbind_xx01zvns2b_c2_elabs_scored_6.2plus,syndirella_product,openbind_xx01zvns2b_c2_elabs_scored,openbind_xx01zvns2b_c2_elabs_scored_top80percent,BulkDock Fragalysis export

>  <subsites>  (948) 
1 - Z4590/B/203/1

>  <smiles>  (948) 
CCN1Cc2ccc(NC(=O)c3cc(C4CC4)nc4c3c(C)nn4Cc3ccccc3)cc2C1=O

>  <HIPPO Pose ID>  (948) 
126013

>  <energy_score>  (948) 
-17.109734

>  <inchikey>  (948) 
NASPFTMHFKTWJS-UHFFFAOYSA-N

>  <gnina_score_min>  (948) 
6.694

>  <gnina_score>  (948) 
6.745

>  <ref_mols>  (948) 
Z3559a

>  <HIPPO Compound ID>  (948) 
188182

>  <distance_score>  (948) 
0.632613

>  <rmsd(smina/fragmenstein)>  (948) 
0.873

>  <ref_pdb>  (948) 
Z3559a

>  <inspiration_score>  (948) 
None

$$$$
P126014
     RDKit          3D

 35 40  0  0  0  0  0  0  0  0999 V2000
   -9.8812    3.7362   -4.4722 C   0  0  0  0  0  0  0  0  0  0  0  0
  -10.5560    2.6520   -5.3002 C   0  0  0  0  0  0  0  0  0  0  0  0
   -9.6785    2.0171   -6.3837 C   0  0  0  0  0  0  0  0  0  0  0  0
   -9.5642    2.8485   -7.5645 N   0  0  0  0  0  0  0  0  0  0  0  0
   -8.6720    4.0078   -7.4323 C   0  0  0  0  0  0  0  0  0  0  0  0
   -8.2455    4.2813   -8.8341 C   0  0  0  0  0  0  0  0  0  0  0  0
   -7.7149    5.4324   -9.3756 C   0  0  0  0  0  0  0  0  0  0  0  0
   -7.4564    5.4412  -10.7442 C   0  0  0  0  0  0  0  0  0  0  0  0
   -7.7147    4.3069  -11.5333 C   0  0  0  0  0  0  0  0  0  0  0  0
   -7.4792    4.3267  -12.9001 N   0  0  0  0  0  0  0  0  0  0  0  0
   -6.9651    5.4590  -13.8114 C   0  0  0  0  0  0  0  0  0  0  0  0
   -6.5855    6.5293  -13.5464 O   0  0  0  0  0  0  0  0  0  0  0  0
   -7.0114    5.0528  -15.2269 C   0  0  0  0  0  0  0  0  0  0  0  0
   -8.1764    4.4884  -15.7656 C   0  0  0  0  0  0  0  0  0  0  0  0
   -8.2644    4.2456  -17.1361 C   0  0  0  0  0  0  0  0  0  0  0  0
   -9.5594    3.7427  -17.7273 C   0  0  0  0  0  0  0  0  0  0  0  0
   -9.8618    3.9308  -19.1920 C   0  0  0  0  0  0  0  0  0  0  0  0
   -9.5413    2.5633  -18.6663 C   0  0  0  0  0  0  0  0  0  0  0  0
   -7.2472    4.5190  -17.9813 N   0  0  0  0  0  0  0  0  0  0  0  0
   -6.1601    5.0695  -17.4231 C   0  0  0  0  0  0  0  0  0  0  0  0
   -5.9527    5.3564  -16.0889 C   0  0  0  0  0  0  0  0  0  0  0  0
   -4.6483    5.9176  -16.0470 C   0  0  0  0  0  0  0  0  0  0  0  0
   -3.8762    6.3870  -14.8696 C   0  0  0  0  0  0  0  0  0  0  0  0
   -4.1056    6.0201  -17.2706 N   0  0  0  0  0  0  0  0  0  0  0  0
   -5.0509    5.5094  -18.0939 N   0  0  0  0  0  0  0  0  0  0  0  0
   -4.9566    5.5118  -19.5521 C   0  0  0  0  0  0  0  0  0  0  0  0
   -3.6870    6.0686  -20.1519 C   0  0  0  0  0  0  0  0  0  0  0  0
   -3.7556    7.1321  -21.0670 C   0  0  0  0  0  0  0  0  0  0  0  0
   -2.5992    7.6304  -21.6702 C   0  0  0  0  0  0  0  0  0  0  0  0
   -1.3608    7.0676  -21.3726 C   0  0  0  0  0  0  0  0  0  0  0  0
   -1.2793    6.0051  -20.4758 C   0  0  0  0  0  0  0  0  0  0  0  0
   -2.4344    5.5028  -19.8743 C   0  0  0  0  0  0  0  0  0  0  0  0
   -8.2360    3.1425  -10.9667 C   0  0  0  0  0  0  0  0  0  0  0  0
   -8.5043    3.1538   -9.6140 C   0  0  0  0  0  0  0  0  0  0  0  0
   -9.1017    2.0929   -8.7476 C   0  0  0  0  0  0  0  0  0  0  0  0
  1  2  1  0
  2  3  1  0
  3  4  1  0
  4  5  1  0
  5  6  1  0
  6  7  2  0
  7  8  1  0
  8  9  2  0
  9 10  1  0
 10 11  1  0
 11 12  2  0
 11 13  1  0
 13 14  2  0
 14 15  1  0
 15 16  1  0
 16 17  1  0
 17 18  1  0
 15 19  2  0
 19 20  1  0
 20 21  2  0
 21 22  1  0
 22 23  1  0
 22 24  2  0
 24 25  1  0
 25 26  1  0
 26 27  1  0
 27 28  2  0
 28 29  1  0
 29 30  2  0
 30 31  1  0
 31 32  2  0
  9 33  1  0
 33 34  2  0
 34 35  1  0
 35  4  1  0
 34  6  1  0
 21 13  1  0
 32 27  1  0
 18 16  1  0
 25 20  1  0
M  END
>  <name>  (949) 
P126014

>  <alias>  (949) 
None

>  <smina_score_min>  (949) 
-9.322

>  <exports>  (949) 
['/opt/xchem-fragalysis-2/maxwin/BulkDock/OUTPUTS/openbind_xx01zvns2b_c2_elabs_1LOUTNY.sdf', '/opt/xchem-fragalysis-2/maxwin/BulkDock/OUTPUTS/openbind_xx01zvns2b_c2_elabs_1LSYIIV.sdf']

>  <tags>  (949) 
syndirella_placed,openbind_xx01zvns2b_c2_elabs,openbind_xx01zvns2b_c2_elabs_scored_6.2plus,syndirella_product,openbind_xx01zvns2b_c2_elabs_scored,openbind_xx01zvns2b_c2_elabs_scored_top80percent,BulkDock Fragalysis export

>  <subsites>  (949) 
1 - Z4590/B/203/1

>  <smiles>  (949) 
CCCN1Cc2ccc(NC(=O)c3cc(C4CC4)nc4c3c(C)nn4Cc3ccccc3)cc2C1

>  <HIPPO Pose ID>  (949) 
126014

>  <energy_score>  (949) 
-26.101515

>  <inchikey>  (949) 
OLZAQOKYPIBIBO-UHFFFAOYSA-N

>  <gnina_score_min>  (949) 
6.647

>  <gnina_score>  (949) 
6.628

>  <ref_mols>  (949) 
Z3559a

>  <HIPPO Compound ID>  (949) 
188183

>  <distance_score>  (949) 
0.549491

>  <rmsd(smina/fragmenstein)>  (949) 
0.336

>  <ref_pdb>  (949) 
Z3559a

>  <inspiration_score>  (949) 
None

$$$$
P126015
     RDKit          3D

 35 40  0  0  0  0  0  0  0  0999 V2000
   -4.1880    6.2257  -14.1036 C   0  0  0  0  0  0  0  0  0  0  0  0
   -4.6748    5.8549  -15.4569 C   0  0  0  0  0  0  0  0  0  0  0  0
   -3.8437    5.9651  -16.5076 N   0  0  0  0  0  0  0  0  0  0  0  0
   -4.6088    5.5901  -17.5591 N   0  0  0  0  0  0  0  0  0  0  0  0
   -4.0743    5.5888  -18.9107 C   0  0  0  0  0  0  0  0  0  0  0  0
   -4.1731    6.9337  -19.5921 C   0  0  0  0  0  0  0  0  0  0  0  0
   -4.8655    7.0578  -20.8055 C   0  0  0  0  0  0  0  0  0  0  0  0
   -4.8983    8.2775  -21.4848 C   0  0  0  0  0  0  0  0  0  0  0  0
   -4.2574    9.3928  -20.9512 C   0  0  0  0  0  0  0  0  0  0  0  0
   -3.5747    9.2871  -19.7417 C   0  0  0  0  0  0  0  0  0  0  0  0
   -3.5258    8.0640  -19.0700 C   0  0  0  0  0  0  0  0  0  0  0  0
   -5.8474    5.1549  -17.1948 C   0  0  0  0  0  0  0  0  0  0  0  0
   -6.7738    4.6650  -18.0197 N   0  0  0  0  0  0  0  0  0  0  0  0
   -7.9586    4.3554  -17.4550 C   0  0  0  0  0  0  0  0  0  0  0  0
   -8.9692    3.9035  -18.4783 C   0  0  0  0  0  0  0  0  0  0  0  0
   -9.5220    2.5135  -18.3798 C   0  0  0  0  0  0  0  0  0  0  0  0
  -10.4289    3.7098  -18.2419 C   0  0  0  0  0  0  0  0  0  0  0  0
   -8.2033    4.5153  -16.0785 C   0  0  0  0  0  0  0  0  0  0  0  0
   -7.1949    5.0397  -15.2514 C   0  0  0  0  0  0  0  0  0  0  0  0
   -7.4327    5.4638  -13.8519 C   0  0  0  0  0  0  0  0  0  0  0  0
   -7.1598    6.5703  -13.5955 O   0  0  0  0  0  0  0  0  0  0  0  0
   -7.9161    4.3136  -12.9388 N   0  0  0  0  0  0  0  0  0  0  0  0
   -8.0689    4.2595  -11.5483 C   0  0  0  0  0  0  0  0  0  0  0  0
   -7.6994    5.3726  -10.7571 C   0  0  0  0  0  0  0  0  0  0  0  0
   -7.8120    5.3524   -9.3616 C   0  0  0  0  0  0  0  0  0  0  0  0
   -8.3192    4.2075   -8.7892 C   0  0  0  0  0  0  0  0  0  0  0  0
   -8.7072    3.1251   -9.5550 C   0  0  0  0  0  0  0  0  0  0  0  0
   -8.5765    3.1085  -10.9375 C   0  0  0  0  0  0  0  0  0  0  0  0
   -9.3461    2.1740   -8.6477 C   0  0  0  0  0  0  0  0  0  0  0  0
   -9.9459    1.1882   -9.0226 O   0  0  0  0  0  0  0  0  0  0  0  0
   -9.2303    2.6879   -7.3857 N   0  0  0  0  0  0  0  0  0  0  0  0
   -9.8808    2.1093   -6.2397 C   0  0  0  0  0  0  0  0  0  0  0  0
   -8.6531    3.9230   -7.3946 C   0  0  0  0  0  0  0  0  0  0  0  0
   -8.4802    4.7136   -6.4839 O   0  0  0  0  0  0  0  0  0  0  0  0
   -5.9532    5.3510  -15.8341 C   0  0  0  0  0  0  0  0  0  0  0  0
  1  2  1  0
  2  3  2  0
  3  4  1  0
  4  5  1  0
  5  6  1  0
  6  7  2  0
  7  8  1  0
  8  9  2  0
  9 10  1  0
 10 11  2  0
  4 12  1  0
 12 13  2  0
 13 14  1  0
 14 15  1  0
 15 16  1  0
 16 17  1  0
 14 18  2  0
 18 19  1  0
 19 20  1  0
 20 21  2  0
 20 22  1  0
 22 23  1  0
 23 24  2  0
 24 25  1  0
 25 26  2  0
 26 27  1  0
 27 28  2  0
 27 29  1  0
 29 30  2  0
 29 31  1  0
 31 32  1  0
 31 33  1  0
 33 34  2  0
 19 35  2  0
 35  2  1  0
 11  6  1  0
 35 12  1  0
 17 15  1  0
 28 23  1  0
 33 26  1  0
M  END
>  <name>  (950) 
P126015

>  <alias>  (950) 
None

>  <smina_score_min>  (950) 
-9.667

>  <exports>  (950) 
['/opt/xchem-fragalysis-2/maxwin/BulkDock/OUTPUTS/openbind_xx01zvns2b_c2_elabs_1LOUTNY.sdf', '/opt/xchem-fragalysis-2/maxwin/BulkDock/OUTPUTS/openbind_xx01zvns2b_c2_elabs_1LSYIIV.sdf']

>  <tags>  (950) 
syndirella_placed,openbind_xx01zvns2b_c2_elabs,openbind_xx01zvns2b_c2_elabs_scored_6.2plus,syndirella_product,openbind_xx01zvns2b_c2_elabs_scored,openbind_xx01zvns2b_c2_elabs_scored_top80percent,BulkDock Fragalysis export

>  <subsites>  (950) 
1 - Z4590/B/203/1

>  <smiles>  (950) 
Cc1nn(Cc2ccccc2)c2nc(C3CC3)cc(C(=O)Nc3ccc4c(c3)C(=O)N(C)C4=O)c12

>  <HIPPO Pose ID>  (950) 
126015

>  <energy_score>  (950) 
-46.886117

>  <inchikey>  (950) 
LTSKLALYGGKYCE-UHFFFAOYSA-N

>  <gnina_score_min>  (950) 
6.547

>  <gnina_score>  (950) 
6.666

>  <ref_mols>  (950) 
Z3559a

>  <HIPPO Compound ID>  (950) 
188185

>  <distance_score>  (950) 
0.623461

>  <rmsd(smina/fragmenstein)>  (950) 
0.883

>  <ref_pdb>  (950) 
Z3559a

>  <inspiration_score>  (950) 
None

$$$$
P126016
     RDKit          3D

 35 40  0  0  0  0  0  0  0  0999 V2000
  -10.8903    2.9129   -5.4390 C   0  0  0  0  0  0  0  0  0  0  0  0
   -9.6383    2.2748   -6.0063 C   0  0  0  0  0  0  0  0  0  0  0  0
   -9.2110    2.8984   -7.2287 N   0  0  0  0  0  0  0  0  0  0  0  0
   -9.1336    2.1771   -8.4908 C   0  0  0  0  0  0  0  0  0  0  0  0
   -8.5951    3.2246   -9.4083 C   0  0  0  0  0  0  0  0  0  0  0  0
   -8.4099    3.2016  -10.7796 C   0  0  0  0  0  0  0  0  0  0  0  0
   -7.9370    4.3684  -11.3925 C   0  0  0  0  0  0  0  0  0  0  0  0
   -7.7614    4.3928  -12.7712 N   0  0  0  0  0  0  0  0  0  0  0  0
   -7.2123    5.5018  -13.6917 C   0  0  0  0  0  0  0  0  0  0  0  0
   -6.8927    6.5972  -13.4485 O   0  0  0  0  0  0  0  0  0  0  0  0
   -7.1096    5.0564  -15.0911 C   0  0  0  0  0  0  0  0  0  0  0  0
   -8.2063    4.4919  -15.7417 C   0  0  0  0  0  0  0  0  0  0  0  0
   -8.1651    4.2928  -17.1225 C   0  0  0  0  0  0  0  0  0  0  0  0
   -9.4230    3.7975  -17.8101 C   0  0  0  0  0  0  0  0  0  0  0  0
   -9.5888    3.9140  -19.3013 C   0  0  0  0  0  0  0  0  0  0  0  0
   -9.3828    2.5671  -18.6778 C   0  0  0  0  0  0  0  0  0  0  0  0
   -7.0777    4.6142  -17.8762 N   0  0  0  0  0  0  0  0  0  0  0  0
   -6.0336    5.1357  -17.2036 C   0  0  0  0  0  0  0  0  0  0  0  0
   -5.9680    5.3688  -15.8388 C   0  0  0  0  0  0  0  0  0  0  0  0
   -4.6780    5.9169  -15.6215 C   0  0  0  0  0  0  0  0  0  0  0  0
   -4.0394    6.3299  -14.3459 C   0  0  0  0  0  0  0  0  0  0  0  0
   -4.0031    6.0605  -16.7671 N   0  0  0  0  0  0  0  0  0  0  0  0
   -4.8427    5.5911  -17.7167 N   0  0  0  0  0  0  0  0  0  0  0  0
   -4.4278    5.7628  -19.0988 C   0  0  1  0  0  0  0  0  0  0  0  0
   -2.9572    5.3604  -19.3311 C   0  0  0  0  0  0  0  0  0  0  0  0
   -2.7125    5.4368  -20.8270 C   0  0  0  0  0  0  0  0  0  0  0  0
   -4.2315    4.9019  -21.5842 S   0  0  0  0  0  0  0  0  0  0  0  0
   -4.6328    5.9054  -22.5469 O   0  0  0  0  0  0  0  0  0  0  0  0
   -4.0988    3.5015  -21.9457 O   0  0  0  0  0  0  0  0  0  0  0  0
   -5.2589    5.0285  -20.1382 C   0  0  0  0  0  0  0  0  0  0  0  0
   -7.6472    5.5207  -10.6337 C   0  0  0  0  0  0  0  0  0  0  0  0
   -7.8165    5.5310   -9.2536 C   0  0  0  0  0  0  0  0  0  0  0  0
   -8.2896    4.3743   -8.6784 C   0  0  0  0  0  0  0  0  0  0  0  0
   -8.6282    4.1447   -7.2769 C   0  0  0  0  0  0  0  0  0  0  0  0
   -8.4372    4.9400   -6.3755 O   0  0  0  0  0  0  0  0  0  0  0  0
  1  2  1  0
  2  3  1  0
  3  4  1  0
  4  5  1  0
  5  6  2  0
  6  7  1  0
  7  8  1  0
  8  9  1  0
  9 10  2  0
  9 11  1  0
 11 12  2  0
 12 13  1  0
 13 14  1  0
 14 15  1  0
 15 16  1  0
 13 17  2  0
 17 18  1  0
 18 19  2  0
 19 20  1  0
 20 21  1  0
 20 22  2  0
 22 23  1  0
 24 23  1  1
 24 25  1  0
 25 26  1  0
 26 27  1  0
 27 28  2  0
 27 29  2  0
 27 30  1  0
  7 31  2  0
 31 32  1  0
 32 33  2  0
 33 34  1  0
 34 35  2  0
 34  3  1  0
 33  5  1  0
 19 11  1  0
 30 24  1  0
 16 14  1  0
 23 18  1  0
M  END
>  <name>  (951) 
P126016

>  <alias>  (951) 
None

>  <smina_score_min>  (951) 
-10.524

>  <exports>  (951) 
['/opt/xchem-fragalysis-2/maxwin/BulkDock/OUTPUTS/openbind_xx01zvns2b_c2_elabs_1LOUTNY.sdf', '/opt/xchem-fragalysis-2/maxwin/BulkDock/OUTPUTS/openbind_xx01zvns2b_c2_elabs_1LSYIIV.sdf']

>  <tags>  (951) 
syndirella_placed,openbind_xx01zvns2b_c2_elabs,openbind_xx01zvns2b_c2_elabs_scored_6.2plus,syndirella_product,openbind_xx01zvns2b_c2_elabs_scored,openbind_xx01zvns2b_c2_elabs_scored_top80percent,BulkDock Fragalysis export

>  <subsites>  (951) 
1 - Z4590/B/203/1

>  <smiles>  (951) 
CCN1Cc2cc(NC(=O)c3cc(C4CC4)nc4c3c(C)nn4[C@H]3CCS(=O)(=O)C3)ccc2C1=O

>  <HIPPO Pose ID>  (951) 
126016

>  <energy_score>  (951) 
-53.379755

>  <inchikey>  (951) 
QEUJCNAXVYHEIC-SFHVURJKSA-N

>  <gnina_score_min>  (951) 
6.718

>  <gnina_score>  (951) 
6.785

>  <ref_mols>  (951) 
Z3559a

>  <HIPPO Compound ID>  (951) 
188186

>  <distance_score>  (951) 
0.485375

>  <rmsd(smina/fragmenstein)>  (951) 
1.082

>  <ref_pdb>  (951) 
Z3559a

>  <inspiration_score>  (951) 
None

$$$$
P126018
     RDKit          3D

 35 40  0  0  0  0  0  0  0  0999 V2000
   -4.1520    6.5511  -14.4099 C   0  0  0  0  0  0  0  0  0  0  0  0
   -4.7834    6.0054  -15.6384 C   0  0  0  0  0  0  0  0  0  0  0  0
   -4.1165    6.0562  -16.8026 N   0  0  0  0  0  0  0  0  0  0  0  0
   -4.9563    5.4778  -17.6821 N   0  0  0  0  0  0  0  0  0  0  0  0
   -4.5880    5.3314  -19.0709 C   0  0  2  0  0  0  0  0  0  0  0  0
   -3.0807    5.4428  -19.3665 C   0  0  0  0  0  0  0  0  0  0  0  0
   -2.9338    5.3905  -20.8813 C   0  0  0  0  0  0  0  0  0  0  0  0
   -4.4353    6.1061  -21.5357 S   0  0  0  0  0  0  0  0  0  0  0  0
   -5.1162    5.0629  -22.2777 O   0  0  0  0  0  0  0  0  0  0  0  0
   -4.1380    7.3994  -22.1147 O   0  0  0  0  0  0  0  0  0  0  0  0
   -5.2481    6.3597  -19.9694 C   0  0  0  0  0  0  0  0  0  0  0  0
   -6.1369    5.0716  -17.1252 C   0  0  0  0  0  0  0  0  0  0  0  0
   -7.1655    4.4989  -17.7695 N   0  0  0  0  0  0  0  0  0  0  0  0
   -8.2605    4.2503  -17.0069 C   0  0  0  0  0  0  0  0  0  0  0  0
   -9.5127    3.7504  -17.6962 C   0  0  0  0  0  0  0  0  0  0  0  0
   -9.4421    2.5803  -18.6437 C   0  0  0  0  0  0  0  0  0  0  0  0
   -9.7110    3.9551  -19.1770 C   0  0  0  0  0  0  0  0  0  0  0  0
   -8.3009    4.5301  -15.6368 C   0  0  0  0  0  0  0  0  0  0  0  0
   -7.2028    5.1333  -15.0161 C   0  0  0  0  0  0  0  0  0  0  0  0
   -7.3019    5.6596  -13.6437 C   0  0  0  0  0  0  0  0  0  0  0  0
   -7.0518    6.7882  -13.4817 O   0  0  0  0  0  0  0  0  0  0  0  0
   -7.7074    4.5687  -12.6291 N   0  0  0  0  0  0  0  0  0  0  0  0
   -7.9730    4.6560  -11.2643 C   0  0  0  0  0  0  0  0  0  0  0  0
   -7.7616    5.8660  -10.5811 C   0  0  0  0  0  0  0  0  0  0  0  0
   -7.9660    5.9671   -9.2034 C   0  0  0  0  0  0  0  0  0  0  0  0
   -8.3897    4.8444   -8.5208 C   0  0  0  0  0  0  0  0  0  0  0  0
   -8.6256    3.6451   -9.2074 C   0  0  0  0  0  0  0  0  0  0  0  0
   -8.4176    3.5275  -10.5749 C   0  0  0  0  0  0  0  0  0  0  0  0
   -9.0788    2.6024   -8.2388 C   0  0  0  0  0  0  0  0  0  0  0  0
   -9.3484    3.3647   -6.9999 N   0  0  0  0  0  0  0  0  0  0  0  0
   -9.2169    2.5485   -5.8218 C   0  0  0  0  0  0  0  0  0  0  0  0
   -8.5829    4.6315   -7.0353 C   0  0  0  0  0  0  0  0  0  0  0  0
   -7.1830    4.6422   -6.3922 C   0  0  0  0  0  0  0  0  0  0  0  0
   -9.3921    5.7157   -6.2980 C   0  0  0  0  0  0  0  0  0  0  0  0
   -6.0674    5.4124  -15.7880 C   0  0  0  0  0  0  0  0  0  0  0  0
  1  2  1  0
  2  3  2  0
  3  4  1  0
  5  4  1  1
  5  6  1  0
  6  7  1  0
  7  8  1  0
  8  9  2  0
  8 10  2  0
  8 11  1  0
  4 12  1  0
 12 13  2  0
 13 14  1  0
 14 15  1  0
 15 16  1  0
 16 17  1  0
 14 18  2  0
 18 19  1  0
 19 20  1  0
 20 21  2  0
 20 22  1  0
 22 23  1  0
 23 24  2  0
 24 25  1  0
 25 26  2  0
 26 27  1  0
 27 28  2  0
 27 29  1  0
 29 30  1  0
 30 31  1  0
 30 32  1  0
 32 33  1  0
 32 34  1  0
 19 35  2  0
 35  2  1  0
 11  5  1  0
 35 12  1  0
 17 15  1  0
 28 23  1  0
 32 26  1  0
M  END
>  <name>  (952) 
P126018

>  <alias>  (952) 
None

>  <smina_score_min>  (952) 
-8.95

>  <exports>  (952) 
['/opt/xchem-fragalysis-2/maxwin/BulkDock/OUTPUTS/openbind_xx01zvns2b_c2_elabs_1LOUTNY.sdf', '/opt/xchem-fragalysis-2/maxwin/BulkDock/OUTPUTS/openbind_xx01zvns2b_c2_elabs_1LSYIIV.sdf']

>  <tags>  (952) 
syndirella_placed,openbind_xx01zvns2b_c2_elabs,openbind_xx01zvns2b_c2_elabs_scored_6.2plus,syndirella_product,openbind_xx01zvns2b_c2_elabs_scored,openbind_xx01zvns2b_c2_elabs_scored_top80percent,BulkDock Fragalysis export

>  <subsites>  (952) 
1 - Z4590/B/203/1

>  <smiles>  (952) 
Cc1nn([C@@H]2CCS(=O)(=O)C2)c2nc(C3CC3)cc(C(=O)Nc3ccc4c(c3)CN(C)C4(C)C)c12

>  <HIPPO Pose ID>  (952) 
126018

>  <energy_score>  (952) 
-64.170772

>  <inchikey>  (952) 
VBCSOVOIKRHJMR-LJQANCHMSA-N

>  <gnina_score_min>  (952) 
6.449

>  <gnina_score>  (952) 
6.636

>  <ref_mols>  (952) 
Z3559a

>  <HIPPO Compound ID>  (952) 
188189

>  <distance_score>  (952) 
0.645932

>  <rmsd(smina/fragmenstein)>  (952) 
0.572

>  <ref_pdb>  (952) 
Z3559a

>  <inspiration_score>  (952) 
None

$$$$
P126020
     RDKit          3D

 35 40  0  0  0  0  0  0  0  0999 V2000
  -10.6777    2.6403   -5.3648 C   0  0  0  0  0  0  0  0  0  0  0  0
   -9.8743    1.8896   -6.4036 C   0  0  0  0  0  0  0  0  0  0  0  0
   -9.4554    2.7317   -7.4921 N   0  0  0  0  0  0  0  0  0  0  0  0
   -8.6508    3.9229   -7.3122 C   0  0  0  0  0  0  0  0  0  0  0  0
   -8.2844    4.2695   -8.7148 C   0  0  0  0  0  0  0  0  0  0  0  0
   -7.6616    5.3867   -9.2290 C   0  0  0  0  0  0  0  0  0  0  0  0
   -7.4800    5.4536  -10.6169 C   0  0  0  0  0  0  0  0  0  0  0  0
   -7.8939    4.4028  -11.4593 C   0  0  0  0  0  0  0  0  0  0  0  0
   -7.7278    4.4647  -12.8352 N   0  0  0  0  0  0  0  0  0  0  0  0
   -7.0928    5.5558  -13.7189 C   0  0  0  0  0  0  0  0  0  0  0  0
   -6.6781    6.6088  -13.4387 O   0  0  0  0  0  0  0  0  0  0  0  0
   -7.0622    5.1354  -15.1351 C   0  0  0  0  0  0  0  0  0  0  0  0
   -8.1861    4.5570  -15.7393 C   0  0  0  0  0  0  0  0  0  0  0  0
   -8.1891    4.2868  -17.1095 C   0  0  0  0  0  0  0  0  0  0  0  0
   -9.4601    3.7665  -17.7474 C   0  0  0  0  0  0  0  0  0  0  0  0
   -9.7170    3.9488  -19.2201 C   0  0  0  0  0  0  0  0  0  0  0  0
   -9.4097    2.5842  -18.6804 C   0  0  0  0  0  0  0  0  0  0  0  0
   -7.1188    4.5470  -17.9011 N   0  0  0  0  0  0  0  0  0  0  0  0
   -6.0663    5.1034  -17.2786 C   0  0  0  0  0  0  0  0  0  0  0  0
   -5.9513    5.4221  -15.9370 C   0  0  0  0  0  0  0  0  0  0  0  0
   -4.6505    5.9841  -15.8145 C   0  0  0  0  0  0  0  0  0  0  0  0
   -3.9562    6.4797  -14.5989 C   0  0  0  0  0  0  0  0  0  0  0  0
   -4.0237    6.0543  -16.9985 N   0  0  0  0  0  0  0  0  0  0  0  0
   -4.8920    5.4929  -17.8607 N   0  0  0  0  0  0  0  0  0  0  0  0
   -4.5470    5.3458  -19.2561 C   0  0  2  0  0  0  0  0  0  0  0  0
   -3.0346    5.3597  -19.5554 C   0  0  0  0  0  0  0  0  0  0  0  0
   -2.8995    5.3206  -21.0707 C   0  0  0  0  0  0  0  0  0  0  0  0
   -4.3297    6.1895  -21.6978 S   0  0  0  0  0  0  0  0  0  0  0  0
   -5.0932    5.2457  -22.4899 O   0  0  0  0  0  0  0  0  0  0  0  0
   -3.9192    7.4774  -22.2169 O   0  0  0  0  0  0  0  0  0  0  0  0
   -5.1318    6.4434  -20.1256 C   0  0  0  0  0  0  0  0  0  0  0  0
   -8.5097    3.2743  -10.9342 C   0  0  0  0  0  0  0  0  0  0  0  0
   -8.7049    3.2548   -9.5717 C   0  0  0  0  0  0  0  0  0  0  0  0
   -9.4387    2.2701   -8.7913 C   0  0  0  0  0  0  0  0  0  0  0  0
   -9.9577    1.2790   -9.2570 O   0  0  0  0  0  0  0  0  0  0  0  0
  1  2  1  0
  2  3  1  0
  3  4  1  0
  4  5  1  0
  5  6  2  0
  6  7  1  0
  7  8  2  0
  8  9  1  0
  9 10  1  0
 10 11  2  0
 10 12  1  0
 12 13  2  0
 13 14  1  0
 14 15  1  0
 15 16  1  0
 16 17  1  0
 14 18  2  0
 18 19  1  0
 19 20  2  0
 20 21  1  0
 21 22  1  0
 21 23  2  0
 23 24  1  0
 25 24  1  1
 25 26  1  0
 26 27  1  0
 27 28  1  0
 28 29  2  0
 28 30  2  0
 28 31  1  0
  8 32  1  0
 32 33  2  0
 33 34  1  0
 34 35  2  0
 34  3  1  0
 33  5  1  0
 20 12  1  0
 31 25  1  0
 17 15  1  0
 24 19  1  0
M  END
>  <name>  (953) 
P126020

>  <alias>  (953) 
None

>  <smina_score_min>  (953) 
-9.541

>  <exports>  (953) 
['/opt/xchem-fragalysis-2/maxwin/BulkDock/OUTPUTS/openbind_xx01zvns2b_c2_elabs_1LOUTNY.sdf', '/opt/xchem-fragalysis-2/maxwin/BulkDock/OUTPUTS/openbind_xx01zvns2b_c2_elabs_1LSYIIV.sdf']

>  <tags>  (953) 
syndirella_placed,openbind_xx01zvns2b_c2_elabs,openbind_xx01zvns2b_c2_elabs_scored_6.2plus,syndirella_product,openbind_xx01zvns2b_c2_elabs_scored,openbind_xx01zvns2b_c2_elabs_scored_top80percent,BulkDock Fragalysis export

>  <subsites>  (953) 
1 - Z4590/B/203/1

>  <smiles>  (953) 
CCN1Cc2ccc(NC(=O)c3cc(C4CC4)nc4c3c(C)nn4[C@@H]3CCS(=O)(=O)C3)cc2C1=O

>  <HIPPO Pose ID>  (953) 
126020

>  <energy_score>  (953) 
-57.069599

>  <inchikey>  (953) 
DOFDNYHFMNYBSH-GOSISDBHSA-N

>  <gnina_score_min>  (953) 
6.436

>  <gnina_score>  (953) 
6.617

>  <ref_mols>  (953) 
Z3559a

>  <HIPPO Compound ID>  (953) 
188191

>  <distance_score>  (953) 
0.505121

>  <rmsd(smina/fragmenstein)>  (953) 
0.553

>  <ref_pdb>  (953) 
Z3559a

>  <inspiration_score>  (953) 
None

$$$$
P126022
     RDKit          3D

 35 39  0  0  0  0  0  0  0  0999 V2000
   -4.5178    6.4615  -13.6383 C   0  0  0  0  0  0  0  0  0  0  0  0
   -4.9946    6.0498  -14.9830 C   0  0  0  0  0  0  0  0  0  0  0  0
   -4.2260    6.2784  -16.0622 N   0  0  0  0  0  0  0  0  0  0  0  0
   -5.0157    5.8803  -17.0944 N   0  0  0  0  0  0  0  0  0  0  0  0
   -4.7435    6.3805  -18.4278 C   0  0  0  0  0  0  0  0  0  0  0  0
   -5.1478    7.8630  -18.5638 C   0  0  0  0  0  0  0  0  0  0  0  0
   -5.8505    8.1896  -19.4788 O   0  0  0  0  0  0  0  0  0  0  0  0
   -4.5354    8.6476  -17.5247 N   0  0  0  0  0  0  0  0  0  0  0  0
   -4.4969   10.0761  -17.3139 C   0  0  0  0  0  0  0  0  0  0  0  0
   -3.3417   10.6951  -18.0920 C   0  0  0  0  0  0  0  0  0  0  0  0
   -4.3967   10.3892  -15.8268 C   0  0  0  0  0  0  0  0  0  0  0  0
   -6.1455    5.2279  -16.6937 C   0  0  0  0  0  0  0  0  0  0  0  0
   -7.0439    4.6234  -17.4808 N   0  0  0  0  0  0  0  0  0  0  0  0
   -8.1577    4.1697  -16.8542 C   0  0  0  0  0  0  0  0  0  0  0  0
   -9.1440    3.4049  -17.7132 C   0  0  0  0  0  0  0  0  0  0  0  0
  -10.4660    3.9828  -18.1604 C   0  0  0  0  0  0  0  0  0  0  0  0
   -9.3453    3.8648  -19.1403 C   0  0  0  0  0  0  0  0  0  0  0  0
   -8.3936    4.3874  -15.4901 C   0  0  0  0  0  0  0  0  0  0  0  0
   -7.4268    5.0404  -14.7128 C   0  0  0  0  0  0  0  0  0  0  0  0
   -7.7088    5.5500  -13.3548 C   0  0  0  0  0  0  0  0  0  0  0  0
   -7.6464    6.7432  -13.2556 O   0  0  0  0  0  0  0  0  0  0  0  0
   -7.9636    4.5405  -12.3718 N   0  0  0  0  0  0  0  0  0  0  0  0
   -8.1254    4.6301  -10.9846 C   0  0  0  0  0  0  0  0  0  0  0  0
   -7.9404    5.8569  -10.3204 C   0  0  0  0  0  0  0  0  0  0  0  0
   -8.0623    5.9591   -8.9298 C   0  0  0  0  0  0  0  0  0  0  0  0
   -8.3896    4.8244   -8.2072 C   0  0  0  0  0  0  0  0  0  0  0  0
   -8.5927    3.6123   -8.8660 C   0  0  0  0  0  0  0  0  0  0  0  0
   -8.4545    3.4907  -10.2473 C   0  0  0  0  0  0  0  0  0  0  0  0
   -8.9984    2.5670   -7.8788 C   0  0  0  0  0  0  0  0  0  0  0  0
   -8.8559    3.1957   -6.5381 N   0  0  0  0  0  0  0  0  0  0  0  0
   -9.9801    2.8498   -5.6839 C   0  0  0  0  0  0  0  0  0  0  0  0
   -8.5239    4.6351   -6.7122 C   0  0  0  0  0  0  0  0  0  0  0  0
   -7.1410    4.8740   -6.0745 C   0  0  0  0  0  0  0  0  0  0  0  0
   -9.4962    5.6321   -6.0542 C   0  0  0  0  0  0  0  0  0  0  0  0
   -6.2257    5.4247  -15.3290 C   0  0  0  0  0  0  0  0  0  0  0  0
  1  2  1  0
  2  3  2  0
  3  4  1  0
  4  5  1  0
  5  6  1  0
  6  7  2  0
  6  8  1  0
  8  9  1  0
  9 10  1  0
  9 11  1  0
  4 12  1  0
 12 13  2  0
 13 14  1  0
 14 15  1  0
 15 16  1  0
 16 17  1  0
 14 18  2  0
 18 19  1  0
 19 20  1  0
 20 21  2  0
 20 22  1  0
 22 23  1  0
 23 24  2  0
 24 25  1  0
 25 26  2  0
 26 27  1  0
 27 28  2  0
 27 29  1  0
 29 30  1  0
 30 31  1  0
 30 32  1  0
 32 33  1  0
 32 34  1  0
 19 35  2  0
 35  2  1  0
 35 12  1  0
 17 15  1  0
 28 23  1  0
 32 26  1  0
M  END
>  <name>  (954) 
P126022

>  <alias>  (954) 
None

>  <smina_score_min>  (954) 
-8.813

>  <exports>  (954) 
['/opt/xchem-fragalysis-2/maxwin/BulkDock/OUTPUTS/openbind_xx01zvns2b_c2_elabs_1LOUTNY.sdf', '/opt/xchem-fragalysis-2/maxwin/BulkDock/OUTPUTS/openbind_xx01zvns2b_c2_elabs_1LSYIIV.sdf']

>  <tags>  (954) 
syndirella_placed,openbind_xx01zvns2b_c2_elabs,openbind_xx01zvns2b_c2_elabs_scored_6.2plus,syndirella_product,openbind_xx01zvns2b_c2_elabs_scored,openbind_xx01zvns2b_c2_elabs_scored_top80percent,BulkDock Fragalysis export

>  <subsites>  (954) 
1 - Z4590/B/203/1

>  <smiles>  (954) 
Cc1nn(CC(=O)NC(C)C)c2nc(C3CC3)cc(C(=O)Nc3ccc4c(c3)CN(C)C4(C)C)c12

>  <HIPPO Pose ID>  (954) 
126022

>  <energy_score>  (954) 
-63.399289

>  <inchikey>  (954) 
MRNIDGKDZGDANH-UHFFFAOYSA-N

>  <gnina_score_min>  (954) 
6.638

>  <gnina_score>  (954) 
6.54

>  <ref_mols>  (954) 
Z3559a

>  <HIPPO Compound ID>  (954) 
188193

>  <distance_score>  (954) 
0.859251

>  <rmsd(smina/fragmenstein)>  (954) 
0.621

>  <ref_pdb>  (954) 
Z3559a

>  <inspiration_score>  (954) 
None

$$$$
P126023
     RDKit          3D

 35 40  0  0  0  0  0  0  0  0999 V2000
   -3.5146    5.9447  -14.2376 C   0  0  0  0  0  0  0  0  0  0  0  0
   -4.2669    5.6612  -15.4876 C   0  0  0  0  0  0  0  0  0  0  0  0
   -3.6082    5.6570  -16.6492 N   0  0  0  0  0  0  0  0  0  0  0  0
   -4.5611    5.4339  -17.5951 N   0  0  0  0  0  0  0  0  0  0  0  0
   -4.1990    5.5036  -18.9597 C   0  0  0  0  0  0  0  0  0  0  0  0
   -2.8690    5.2443  -19.3358 C   0  0  0  0  0  0  0  0  0  0  0  0
   -2.5040    5.2594  -20.6842 C   0  0  0  0  0  0  0  0  0  0  0  0
   -3.4520    5.5669  -21.6584 C   0  0  0  0  0  0  0  0  0  0  0  0
   -4.7573    5.8824  -21.2796 C   0  0  0  0  0  0  0  0  0  0  0  0
   -5.1241    5.8583  -19.9338 C   0  0  0  0  0  0  0  0  0  0  0  0
   -6.3359    6.3190  -19.5993 F   0  0  0  0  0  0  0  0  0  0  0  0
   -5.7855    5.1131  -17.0174 C   0  0  0  0  0  0  0  0  0  0  0  0
   -6.8878    4.6335  -17.6328 N   0  0  0  0  0  0  0  0  0  0  0  0
   -7.9786    4.4327  -16.8504 C   0  0  0  0  0  0  0  0  0  0  0  0
   -9.2461    3.9014  -17.5397 C   0  0  0  0  0  0  0  0  0  0  0  0
   -9.5177    4.1926  -18.9960 C   0  0  0  0  0  0  0  0  0  0  0  0
   -9.1487    2.8044  -18.5776 C   0  0  0  0  0  0  0  0  0  0  0  0
   -7.9499    4.7380  -15.4757 C   0  0  0  0  0  0  0  0  0  0  0  0
   -9.4022    4.7822  -14.5609 Cl  0  0  0  0  0  0  0  0  0  0  0  0
   -6.7597    5.1299  -14.8445 C   0  0  0  0  0  0  0  0  0  0  0  0
   -6.6930    5.4522  -13.3925 C   0  0  0  0  0  0  0  0  0  0  0  0
   -6.2069    6.4689  -13.0827 O   0  0  0  0  0  0  0  0  0  0  0  0
   -7.3413    4.3425  -12.5246 N   0  0  0  0  0  0  0  0  0  0  0  0
   -7.6008    4.2998  -11.1565 C   0  0  0  0  0  0  0  0  0  0  0  0
   -7.2436    5.3703  -10.3172 C   0  0  0  0  0  0  0  0  0  0  0  0
   -7.5444    5.3515   -8.9498 C   0  0  0  0  0  0  0  0  0  0  0  0
   -8.2123    4.2537   -8.4447 C   0  0  0  0  0  0  0  0  0  0  0  0
   -8.5763    3.2045   -9.2868 C   0  0  0  0  0  0  0  0  0  0  0  0
   -8.2852    3.1955  -10.6395 C   0  0  0  0  0  0  0  0  0  0  0  0
   -9.3521    2.2417   -8.4953 C   0  0  0  0  0  0  0  0  0  0  0  0
   -9.9388    1.2837   -8.9543 O   0  0  0  0  0  0  0  0  0  0  0  0
   -9.3499    2.7079   -7.1917 N   0  0  0  0  0  0  0  0  0  0  0  0
  -10.1834    2.1672   -6.1490 C   0  0  0  0  0  0  0  0  0  0  0  0
   -8.6834    3.9821   -7.0570 C   0  0  0  0  0  0  0  0  0  0  0  0
   -5.6329    5.3223  -15.6528 C   0  0  0  0  0  0  0  0  0  0  0  0
  1  2  1  0
  2  3  2  0
  3  4  1  0
  4  5  1  0
  5  6  2  0
  6  7  1  0
  7  8  2  0
  8  9  1  0
  9 10  2  0
 10 11  1  0
  4 12  1  0
 12 13  2  0
 13 14  1  0
 14 15  1  0
 15 16  1  0
 16 17  1  0
 14 18  2  0
 18 19  1  0
 18 20  1  0
 20 21  1  0
 21 22  2  0
 21 23  1  0
 23 24  1  0
 24 25  2  0
 25 26  1  0
 26 27  2  0
 27 28  1  0
 28 29  2  0
 28 30  1  0
 30 31  2  0
 30 32  1  0
 32 33  1  0
 32 34  1  0
 20 35  2  0
 35  2  1  0
 10  5  1  0
 35 12  1  0
 17 15  1  0
 29 24  1  0
 34 27  1  0
M  END
>  <name>  (955) 
P126023

>  <alias>  (955) 
None

>  <smina_score_min>  (955) 
-9.018

>  <exports>  (955) 
['/opt/xchem-fragalysis-2/maxwin/BulkDock/OUTPUTS/openbind_xx01zvns2b_c2_elabs_1LOUTNY.sdf', '/opt/xchem-fragalysis-2/maxwin/BulkDock/OUTPUTS/openbind_xx01zvns2b_c2_elabs_1LSYIIV.sdf']

>  <tags>  (955) 
syndirella_placed,openbind_xx01zvns2b_c2_elabs,openbind_xx01zvns2b_c2_elabs_scored_6.2plus,syndirella_product,openbind_xx01zvns2b_c2_elabs_scored,openbind_xx01zvns2b_c2_elabs_scored_top80percent,BulkDock Fragalysis export

>  <subsites>  (955) 
1 - Z4590/B/203/1

>  <smiles>  (955) 
Cc1nn(-c2ccccc2F)c2nc(C3CC3)c(Cl)c(C(=O)Nc3ccc4c(c3)C(=O)N(C)C4)c12

>  <HIPPO Pose ID>  (955) 
126023

>  <energy_score>  (955) 
-58.338264

>  <inchikey>  (955) 
HKUMFKLHLHZKIV-UHFFFAOYSA-N

>  <gnina_score_min>  (955) 
6.571

>  <gnina_score>  (955) 
6.862

>  <ref_mols>  (955) 
Z3559a

>  <HIPPO Compound ID>  (955) 
188194

>  <distance_score>  (955) 
0.648943

>  <rmsd(smina/fragmenstein)>  (955) 
0.584

>  <ref_pdb>  (955) 
Z3559a

>  <inspiration_score>  (955) 
None

$$$$
P126024
     RDKit          3D

 35 40  0  0  0  0  0  0  0  0999 V2000
  -10.5524    2.5494   -5.3806 C   0  0  0  0  0  0  0  0  0  0  0  0
   -9.7698    1.8660   -6.4896 C   0  0  0  0  0  0  0  0  0  0  0  0
   -9.5854    2.7602   -7.6138 N   0  0  0  0  0  0  0  0  0  0  0  0
   -8.6928    3.9043   -7.3621 C   0  0  0  0  0  0  0  0  0  0  0  0
   -8.1626    4.2386   -8.7195 C   0  0  0  0  0  0  0  0  0  0  0  0
   -7.5543    5.3901   -9.1803 C   0  0  0  0  0  0  0  0  0  0  0  0
   -7.1753    5.4420  -10.5262 C   0  0  0  0  0  0  0  0  0  0  0  0
   -7.3977    4.3464  -11.3732 C   0  0  0  0  0  0  0  0  0  0  0  0
   -7.1332    4.3980  -12.7361 N   0  0  0  0  0  0  0  0  0  0  0  0
   -6.6579    5.5720  -13.6234 C   0  0  0  0  0  0  0  0  0  0  0  0
   -6.3405    6.6579  -13.3354 O   0  0  0  0  0  0  0  0  0  0  0  0
   -6.7382    5.2026  -15.0564 C   0  0  0  0  0  0  0  0  0  0  0  0
   -7.9373    4.7447  -15.6222 C   0  0  0  0  0  0  0  0  0  0  0  0
   -9.3542    4.7437  -14.6452 Cl  0  0  0  0  0  0  0  0  0  0  0  0
   -8.0023    4.4009  -16.9817 C   0  0  0  0  0  0  0  0  0  0  0  0
   -9.2817    3.8435  -17.6158 C   0  0  0  0  0  0  0  0  0  0  0  0
   -9.2013    2.7476  -18.6541 C   0  0  0  0  0  0  0  0  0  0  0  0
   -9.6241    4.1267  -19.0568 C   0  0  0  0  0  0  0  0  0  0  0  0
   -6.9379    4.5900  -17.8005 N   0  0  0  0  0  0  0  0  0  0  0  0
   -5.8200    5.1054  -17.2462 C   0  0  0  0  0  0  0  0  0  0  0  0
   -5.6463    5.4068  -15.9019 C   0  0  0  0  0  0  0  0  0  0  0  0
   -4.3132    5.8545  -15.7954 C   0  0  0  0  0  0  0  0  0  0  0  0
   -3.5680    6.2925  -14.5871 C   0  0  0  0  0  0  0  0  0  0  0  0
   -3.6943    5.8523  -16.9762 N   0  0  0  0  0  0  0  0  0  0  0  0
   -4.6131    5.4139  -17.8796 N   0  0  0  0  0  0  0  0  0  0  0  0
   -4.2652    5.3153  -19.2594 C   0  0  0  0  0  0  0  0  0  0  0  0
   -5.2233    5.0090  -20.2345 C   0  0  0  0  0  0  0  0  0  0  0  0
   -4.8566    4.8722  -21.5796 C   0  0  0  0  0  0  0  0  0  0  0  0
   -3.5350    5.0429  -21.9749 C   0  0  0  0  0  0  0  0  0  0  0  0
   -2.5757    5.3582  -21.0203 C   0  0  0  0  0  0  0  0  0  0  0  0
   -2.9368    5.4932  -19.6772 C   0  0  0  0  0  0  0  0  0  0  0  0
   -1.9399    5.7552  -18.8190 F   0  0  0  0  0  0  0  0  0  0  0  0
   -7.9984    3.1808  -10.8884 C   0  0  0  0  0  0  0  0  0  0  0  0
   -8.3803    3.1504   -9.5640 C   0  0  0  0  0  0  0  0  0  0  0  0
   -9.0642    2.0627   -8.8037 C   0  0  0  0  0  0  0  0  0  0  0  0
  1  2  1  0
  2  3  1  0
  3  4  1  0
  4  5  1  0
  5  6  2  0
  6  7  1  0
  7  8  2  0
  8  9  1  0
  9 10  1  0
 10 11  2  0
 10 12  1  0
 12 13  2  0
 13 14  1  0
 13 15  1  0
 15 16  1  0
 16 17  1  0
 17 18  1  0
 15 19  2  0
 19 20  1  0
 20 21  2  0
 21 22  1  0
 22 23  1  0
 22 24  2  0
 24 25  1  0
 25 26  1  0
 26 27  2  0
 27 28  1  0
 28 29  2  0
 29 30  1  0
 30 31  2  0
 31 32  1  0
  8 33  1  0
 33 34  2  0
 34 35  1  0
 35  3  1  0
 34  5  1  0
 21 12  1  0
 31 26  1  0
 18 16  1  0
 25 20  1  0
M  END
>  <name>  (956) 
P126024

>  <alias>  (956) 
None

>  <smina_score_min>  (956) 
-9.419

>  <exports>  (956) 
['/opt/xchem-fragalysis-2/maxwin/BulkDock/OUTPUTS/openbind_xx01zvns2b_c2_elabs_1LOUTNY.sdf', '/opt/xchem-fragalysis-2/maxwin/BulkDock/OUTPUTS/openbind_xx01zvns2b_c2_elabs_1LSYIIV.sdf']

>  <tags>  (956) 
syndirella_placed,openbind_xx01zvns2b_c2_elabs,openbind_xx01zvns2b_c2_elabs_scored_6.2plus,syndirella_product,openbind_xx01zvns2b_c2_elabs_scored,openbind_xx01zvns2b_c2_elabs_scored_top80percent,BulkDock Fragalysis export

>  <subsites>  (956) 
1 - Z4590/B/203/1

>  <smiles>  (956) 
CCN1Cc2ccc(NC(=O)c3c(Cl)c(C4CC4)nc4c3c(C)nn4-c3ccccc3F)cc2C1

>  <HIPPO Pose ID>  (956) 
126024

>  <energy_score>  (956) 
-56.016091

>  <inchikey>  (956) 
ZNZMGHJXLNIMMJ-UHFFFAOYSA-N

>  <gnina_score_min>  (956) 
7.028

>  <gnina_score>  (956) 
7.044

>  <ref_mols>  (956) 
Z3559a

>  <HIPPO Compound ID>  (956) 
188195

>  <distance_score>  (956) 
0.699804

>  <rmsd(smina/fragmenstein)>  (956) 
0.512

>  <ref_pdb>  (956) 
Z3559a

>  <inspiration_score>  (956) 
None

$$$$
P126030
     RDKit          3D

 35 39  0  0  0  0  0  0  0  0999 V2000
  -10.6266    2.7106   -5.4759 C   0  0  0  0  0  0  0  0  0  0  0  0
   -9.5165    2.0682   -6.2876 C   0  0  0  0  0  0  0  0  0  0  0  0
   -9.2498    2.7682   -7.5149 N   0  0  0  0  0  0  0  0  0  0  0  0
   -9.0196    2.0422   -8.7552 C   0  0  0  0  0  0  0  0  0  0  0  0
   -8.5617    3.1259   -9.6716 C   0  0  0  0  0  0  0  0  0  0  0  0
   -8.3446    3.1061  -11.0393 C   0  0  0  0  0  0  0  0  0  0  0  0
   -7.9670    4.3018  -11.6595 C   0  0  0  0  0  0  0  0  0  0  0  0
   -7.7617    4.3314  -13.0363 N   0  0  0  0  0  0  0  0  0  0  0  0
   -7.4635    5.5128  -13.9782 C   0  0  0  0  0  0  0  0  0  0  0  0
   -7.4184    6.6584  -13.7634 O   0  0  0  0  0  0  0  0  0  0  0  0
   -7.1574    5.0742  -15.3498 C   0  0  0  0  0  0  0  0  0  0  0  0
   -8.1237    4.4876  -16.1793 C   0  0  0  0  0  0  0  0  0  0  0  0
   -7.8566    4.3369  -17.5505 C   0  0  0  0  0  0  0  0  0  0  0  0
   -8.8473    3.8125  -18.5614 C   0  0  0  0  0  0  0  0  0  0  0  0
   -9.4601    2.4583  -18.3666 C   0  0  0  0  0  0  0  0  0  0  0  0
  -10.3216    3.6949  -18.3326 C   0  0  0  0  0  0  0  0  0  0  0  0
   -6.6848    4.7194  -18.1071 N   0  0  0  0  0  0  0  0  0  0  0  0
   -5.8041    5.2765  -17.2701 C   0  0  0  0  0  0  0  0  0  0  0  0
   -5.9348    5.4611  -15.9107 C   0  0  0  0  0  0  0  0  0  0  0  0
   -4.7086    6.0621  -15.5137 C   0  0  0  0  0  0  0  0  0  0  0  0
   -4.2806    6.4673  -14.1513 C   0  0  0  0  0  0  0  0  0  0  0  0
   -3.8832    6.2551  -16.5564 N   0  0  0  0  0  0  0  0  0  0  0  0
   -4.6138    5.8425  -17.6155 N   0  0  0  0  0  0  0  0  0  0  0  0
   -4.0968    5.9620  -18.9607 C   0  0  0  0  0  0  0  0  0  0  0  0
   -4.8521    7.0005  -19.7967 C   0  0  0  0  0  0  0  0  0  0  0  0
   -5.5458    7.8347  -19.3559 O   0  0  0  0  0  0  0  0  0  0  0  0
   -4.4231    6.7161  -21.2736 N   0  0  0  0  0  0  0  0  0  0  0  0
   -4.8381    7.3428  -22.5076 C   0  0  0  0  0  0  0  0  0  0  0  0
   -4.7516    6.3608  -23.6675 C   0  0  0  0  0  0  0  0  0  0  0  0
   -4.0033    8.5898  -22.7715 C   0  0  0  0  0  0  0  0  0  0  0  0
   -7.7842    5.4782  -10.9012 C   0  0  0  0  0  0  0  0  0  0  0  0
   -7.9751    5.4843   -9.5214 C   0  0  0  0  0  0  0  0  0  0  0  0
   -8.3681    4.2988   -8.9436 C   0  0  0  0  0  0  0  0  0  0  0  0
   -8.7214    4.0446   -7.5483 C   0  0  0  0  0  0  0  0  0  0  0  0
   -8.5765    4.8463   -6.6434 O   0  0  0  0  0  0  0  0  0  0  0  0
  1  2  1  0
  2  3  1  0
  3  4  1  0
  4  5  1  0
  5  6  2  0
  6  7  1  0
  7  8  1  0
  8  9  1  0
  9 10  2  0
  9 11  1  0
 11 12  2  0
 12 13  1  0
 13 14  1  0
 14 15  1  0
 15 16  1  0
 13 17  2  0
 17 18  1  0
 18 19  2  0
 19 20  1  0
 20 21  1  0
 20 22  2  0
 22 23  1  0
 23 24  1  0
 24 25  1  0
 25 26  2  0
 25 27  1  0
 27 28  1  0
 28 29  1  0
 28 30  1  0
  7 31  2  0
 31 32  1  0
 32 33  2  0
 33 34  1  0
 34 35  2  0
 34  3  1  0
 33  5  1  0
 19 11  1  0
 16 14  1  0
 23 18  1  0
M  END
>  <name>  (957) 
P126030

>  <alias>  (957) 
None

>  <smina_score_min>  (957) 
-9.485

>  <exports>  (957) 
['/opt/xchem-fragalysis-2/maxwin/BulkDock/OUTPUTS/openbind_xx01zvns2b_c2_elabs_1LOUTNY.sdf', '/opt/xchem-fragalysis-2/maxwin/BulkDock/OUTPUTS/openbind_xx01zvns2b_c2_elabs_1LSYIIV.sdf']

>  <tags>  (957) 
syndirella_placed,openbind_xx01zvns2b_c2_elabs,openbind_xx01zvns2b_c2_elabs_scored_6.2plus,syndirella_product,openbind_xx01zvns2b_c2_elabs_scored,openbind_xx01zvns2b_c2_elabs_scored_top80percent,BulkDock Fragalysis export

>  <subsites>  (957) 
1 - Z4590/B/203/1

>  <smiles>  (957) 
CCN1Cc2cc(NC(=O)c3cc(C4CC4)nc4c3c(C)nn4CC(=O)NC(C)C)ccc2C1=O

>  <HIPPO Pose ID>  (957) 
126030

>  <energy_score>  (957) 
-24.809077

>  <inchikey>  (957) 
JUKSJHZPAXPRLM-UHFFFAOYSA-N

>  <gnina_score_min>  (957) 
6.66

>  <gnina_score>  (957) 
6.771

>  <ref_mols>  (957) 
Z3559a

>  <HIPPO Compound ID>  (957) 
188204

>  <distance_score>  (957) 
0.726487

>  <rmsd(smina/fragmenstein)>  (957) 
0.538

>  <ref_pdb>  (957) 
Z3559a

>  <inspiration_score>  (957) 
None

$$$$
P126031
     RDKit          3D

 35 39  0  0  0  0  0  0  0  0999 V2000
  -10.6795    2.6824   -5.3797 C   0  0  0  0  0  0  0  0  0  0  0  0
   -9.8669    1.9224   -6.4046 C   0  0  0  0  0  0  0  0  0  0  0  0
   -9.4462    2.7511   -7.5031 N   0  0  0  0  0  0  0  0  0  0  0  0
   -8.6239    3.9329   -7.3350 C   0  0  0  0  0  0  0  0  0  0  0  0
   -8.2505    4.2586   -8.7410 C   0  0  0  0  0  0  0  0  0  0  0  0
   -7.5989    5.3550   -9.2641 C   0  0  0  0  0  0  0  0  0  0  0  0
   -7.4082    5.4027  -10.6519 C   0  0  0  0  0  0  0  0  0  0  0  0
   -7.8474    4.3564  -11.4872 C   0  0  0  0  0  0  0  0  0  0  0  0
   -7.6833    4.4082  -12.8647 N   0  0  0  0  0  0  0  0  0  0  0  0
   -6.9822    5.4575  -13.7515 C   0  0  0  0  0  0  0  0  0  0  0  0
   -6.4992    6.4817  -13.4725 O   0  0  0  0  0  0  0  0  0  0  0  0
   -7.0226    5.0640  -15.1790 C   0  0  0  0  0  0  0  0  0  0  0  0
   -8.1847    4.5182  -15.7475 C   0  0  0  0  0  0  0  0  0  0  0  0
   -8.2586    4.2882  -17.1231 C   0  0  0  0  0  0  0  0  0  0  0  0
   -9.5451    3.7712  -17.7249 C   0  0  0  0  0  0  0  0  0  0  0  0
   -9.5070    2.5947  -18.6677 C   0  0  0  0  0  0  0  0  0  0  0  0
   -9.8437    3.9594  -19.1900 C   0  0  0  0  0  0  0  0  0  0  0  0
   -7.2395    4.5873  -17.9596 N   0  0  0  0  0  0  0  0  0  0  0  0
   -6.1600    5.1285  -17.3776 C   0  0  0  0  0  0  0  0  0  0  0  0
   -5.9508    5.3632  -16.0311 C   0  0  0  0  0  0  0  0  0  0  0  0
   -4.6216    5.8725  -15.9663 C   0  0  0  0  0  0  0  0  0  0  0  0
   -3.8314    6.2587  -14.7703 C   0  0  0  0  0  0  0  0  0  0  0  0
   -4.0608    5.9742  -17.1843 N   0  0  0  0  0  0  0  0  0  0  0  0
   -5.0605    5.6140  -18.0207 N   0  0  0  0  0  0  0  0  0  0  0  0
   -4.8913    5.7059  -19.4550 C   0  0  0  0  0  0  0  0  0  0  0  0
   -5.2967    7.0739  -20.0091 C   0  0  0  0  0  0  0  0  0  0  0  0
   -5.8441    7.9079  -19.3956 O   0  0  0  0  0  0  0  0  0  0  0  0
   -4.8253    7.0583  -21.5009 N   0  0  0  0  0  0  0  0  0  0  0  0
   -4.8491    8.0998  -22.5030 C   0  0  0  0  0  0  0  0  0  0  0  0
   -5.1046    7.5107  -23.8841 C   0  0  0  0  0  0  0  0  0  0  0  0
   -3.5449    8.8875  -22.4684 C   0  0  0  0  0  0  0  0  0  0  0  0
   -8.4956    3.2503  -10.9529 C   0  0  0  0  0  0  0  0  0  0  0  0
   -8.6911    3.2458   -9.5895 C   0  0  0  0  0  0  0  0  0  0  0  0
   -9.4381    2.2790   -8.7989 C   0  0  0  0  0  0  0  0  0  0  0  0
   -9.9747    1.2927   -9.2551 O   0  0  0  0  0  0  0  0  0  0  0  0
  1  2  1  0
  2  3  1  0
  3  4  1  0
  4  5  1  0
  5  6  2  0
  6  7  1  0
  7  8  2  0
  8  9  1  0
  9 10  1  0
 10 11  2  0
 10 12  1  0
 12 13  2  0
 13 14  1  0
 14 15  1  0
 15 16  1  0
 16 17  1  0
 14 18  2  0
 18 19  1  0
 19 20  2  0
 20 21  1  0
 21 22  1  0
 21 23  2  0
 23 24  1  0
 24 25  1  0
 25 26  1  0
 26 27  2  0
 26 28  1  0
 28 29  1  0
 29 30  1  0
 29 31  1  0
  8 32  1  0
 32 33  2  0
 33 34  1  0
 34 35  2  0
 34  3  1  0
 33  5  1  0
 20 12  1  0
 17 15  1  0
 24 19  1  0
M  END
>  <name>  (958) 
P126031

>  <alias>  (958) 
None

>  <smina_score_min>  (958) 
-9.065

>  <exports>  (958) 
['/opt/xchem-fragalysis-2/maxwin/BulkDock/OUTPUTS/openbind_xx01zvns2b_c2_elabs_1LOUTNY.sdf', '/opt/xchem-fragalysis-2/maxwin/BulkDock/OUTPUTS/openbind_xx01zvns2b_c2_elabs_1LSYIIV.sdf']

>  <tags>  (958) 
syndirella_placed,openbind_xx01zvns2b_c2_elabs,openbind_xx01zvns2b_c2_elabs_scored_6.2plus,syndirella_product,openbind_xx01zvns2b_c2_elabs_scored,openbind_xx01zvns2b_c2_elabs_scored_top80percent,BulkDock Fragalysis export

>  <subsites>  (958) 
1 - Z4590/B/203/1

>  <smiles>  (958) 
CCN1Cc2ccc(NC(=O)c3cc(C4CC4)nc4c3c(C)nn4CC(=O)NC(C)C)cc2C1=O

>  <HIPPO Pose ID>  (958) 
126031

>  <energy_score>  (958) 
-20.622092

>  <inchikey>  (958) 
UEKXKIXMCXCRCL-UHFFFAOYSA-N

>  <gnina_score_min>  (958) 
6.567

>  <gnina_score>  (958) 
6.616

>  <ref_mols>  (958) 
Z3559a

>  <HIPPO Compound ID>  (958) 
188207

>  <distance_score>  (958) 
0.505524

>  <rmsd(smina/fragmenstein)>  (958) 
0.675

>  <ref_pdb>  (958) 
Z3559a

>  <inspiration_score>  (958) 
None

$$$$
P126032
     RDKit          3D

 35 40  0  0  0  0  0  0  0  0999 V2000
   -5.8082    2.4018   -9.6252 C   0  0  0  0  0  0  0  0  0  0  0  0
   -6.9625    1.4050   -9.6283 C   0  0  0  0  0  0  0  0  0  0  0  0
   -8.0332    1.2937   -8.4758 C   0  0  0  0  0  0  0  0  0  0  0  0
   -9.0235    2.3112   -8.1182 N   0  0  0  0  0  0  0  0  0  0  0  0
   -8.4975    3.6546   -7.7545 C   0  0  0  0  0  0  0  0  0  0  0  0
   -8.3824    4.3840   -9.0565 C   0  0  0  0  0  0  0  0  0  0  0  0
   -7.6645    5.5043   -9.4260 C   0  0  0  0  0  0  0  0  0  0  0  0
   -7.4708    5.7268  -10.7962 C   0  0  0  0  0  0  0  0  0  0  0  0
   -7.9665    4.8058  -11.7282 C   0  0  0  0  0  0  0  0  0  0  0  0
   -7.6363    4.7921  -13.0618 N   0  0  0  0  0  0  0  0  0  0  0  0
   -6.9204    5.8362  -13.9196 C   0  0  0  0  0  0  0  0  0  0  0  0
   -6.4253    6.8447  -13.6225 O   0  0  0  0  0  0  0  0  0  0  0  0
   -6.9034    5.3543  -15.3161 C   0  0  0  0  0  0  0  0  0  0  0  0
   -8.0403    4.7644  -15.8885 C   0  0  0  0  0  0  0  0  0  0  0  0
   -8.0413    4.3692  -17.2245 C   0  0  0  0  0  0  0  0  0  0  0  0
   -9.3143    3.7683  -17.7863 C   0  0  0  0  0  0  0  0  0  0  0  0
   -9.7105    3.9870  -19.2195 C   0  0  0  0  0  0  0  0  0  0  0  0
   -9.2550    2.6301  -18.7707 C   0  0  0  0  0  0  0  0  0  0  0  0
   -6.9717    4.5765  -18.0307 N   0  0  0  0  0  0  0  0  0  0  0  0
   -5.9095    5.1591  -17.4413 C   0  0  0  0  0  0  0  0  0  0  0  0
   -5.7802    5.5368  -16.1161 C   0  0  0  0  0  0  0  0  0  0  0  0
   -4.4554    6.0276  -15.9994 C   0  0  0  0  0  0  0  0  0  0  0  0
   -3.7333    6.5108  -14.7958 C   0  0  0  0  0  0  0  0  0  0  0  0
   -3.8302    6.0351  -17.1827 N   0  0  0  0  0  0  0  0  0  0  0  0
   -4.7533    5.5715  -18.0483 N   0  0  0  0  0  0  0  0  0  0  0  0
   -4.4843    5.6015  -19.4774 C   0  0  2  0  0  0  0  0  0  0  0  0
   -3.1384    6.2567  -19.8590 C   0  0  0  0  0  0  0  0  0  0  0  0
   -3.3155    7.7671  -19.6906 C   0  0  0  0  0  0  0  0  0  0  0  0
   -4.9973    8.0834  -20.2013 S   0  0  0  0  0  0  0  0  0  0  0  0
   -4.9839    8.5973  -21.5568 O   0  0  0  0  0  0  0  0  0  0  0  0
   -5.7371    8.7651  -19.1552 O   0  0  0  0  0  0  0  0  0  0  0  0
   -5.5295    6.3925  -20.2514 C   0  0  0  0  0  0  0  0  0  0  0  0
   -8.7776    3.7564  -11.3426 C   0  0  0  0  0  0  0  0  0  0  0  0
   -9.0196    3.6010  -10.0088 C   0  0  0  0  0  0  0  0  0  0  0  0
   -9.7659    2.5062   -9.3510 C   0  0  0  0  0  0  0  0  0  0  0  0
  1  2  1  0
  2  3  1  0
  3  4  1  0
  4  5  1  0
  5  6  1  0
  6  7  2  0
  7  8  1  0
  8  9  2  0
  9 10  1  0
 10 11  1  0
 11 12  2  0
 11 13  1  0
 13 14  2  0
 14 15  1  0
 15 16  1  0
 16 17  1  0
 17 18  1  0
 15 19  2  0
 19 20  1  0
 20 21  2  0
 21 22  1  0
 22 23  1  0
 22 24  2  0
 24 25  1  0
 26 25  1  1
 26 27  1  0
 27 28  1  0
 28 29  1  0
 29 30  2  0
 29 31  2  0
 29 32  1  0
  9 33  1  0
 33 34  2  0
 34 35  1  0
 35  4  1  0
 34  6  1  0
 21 13  1  0
 32 26  1  0
 18 16  1  0
 25 20  1  0
M  END
>  <name>  (959) 
P126032

>  <alias>  (959) 
None

>  <smina_score_min>  (959) 
-6.818

>  <exports>  (959) 
['/opt/xchem-fragalysis-2/maxwin/BulkDock/OUTPUTS/openbind_xx01zvns2b_c2_elabs_1LOUTNY.sdf', '/opt/xchem-fragalysis-2/maxwin/BulkDock/OUTPUTS/openbind_xx01zvns2b_c2_elabs_1LSYIIV.sdf']

>  <tags>  (959) 
syndirella_placed,openbind_xx01zvns2b_c2_elabs,openbind_xx01zvns2b_c2_elabs_scored_6.2plus,syndirella_product,openbind_xx01zvns2b_c2_elabs_scored,openbind_xx01zvns2b_c2_elabs_scored_top80percent,BulkDock Fragalysis export

>  <subsites>  (959) 
1 - Z4590/B/203/1

>  <smiles>  (959) 
CCCN1Cc2ccc(NC(=O)c3cc(C4CC4)nc4c3c(C)nn4[C@@H]3CCS(=O)(=O)C3)cc2C1

>  <HIPPO Pose ID>  (959) 
126032

>  <energy_score>  (959) 
-38.724812

>  <inchikey>  (959) 
NPMWUZRWTQFAAP-OAQYLSRUSA-N

>  <gnina_score_min>  (959) 
6.401

>  <gnina_score>  (959) 
6.426

>  <ref_mols>  (959) 
Z3559a

>  <HIPPO Compound ID>  (959) 
188209

>  <distance_score>  (959) 
0.776307

>  <rmsd(smina/fragmenstein)>  (959) 
1.467

>  <ref_pdb>  (959) 
Z3559a

>  <inspiration_score>  (959) 
None

$$$$
P126034
     RDKit          3D

 35 40  0  0  0  0  0  0  0  0999 V2000
   -3.9343    6.1913  -14.3069 C   0  0  0  0  0  0  0  0  0  0  0  0
   -4.6396    5.8982  -15.5809 C   0  0  0  0  0  0  0  0  0  0  0  0
   -4.0202    6.1458  -16.7421 N   0  0  0  0  0  0  0  0  0  0  0  0
   -4.9243    5.7975  -17.6824 N   0  0  0  0  0  0  0  0  0  0  0  0
   -4.6110    6.1469  -19.0504 C   0  0  2  0  0  0  0  0  0  0  0  0
   -5.6310    7.0329  -19.7665 C   0  0  0  0  0  0  0  0  0  0  0  0
   -5.1070    7.1965  -21.1940 C   0  0  0  0  0  0  0  0  0  0  0  0
   -4.2646    5.6724  -21.5845 S   0  0  0  0  0  0  0  0  0  0  0  0
   -5.0480    4.8847  -22.5118 O   0  0  0  0  0  0  0  0  0  0  0  0
   -2.8719    5.9830  -21.8423 O   0  0  0  0  0  0  0  0  0  0  0  0
   -4.3738    4.9646  -19.9621 C   0  0  0  0  0  0  0  0  0  0  0  0
   -6.0612    5.2379  -17.1563 C   0  0  0  0  0  0  0  0  0  0  0  0
   -7.1116    4.7362  -17.8290 N   0  0  0  0  0  0  0  0  0  0  0  0
   -8.1548    4.3225  -17.0549 C   0  0  0  0  0  0  0  0  0  0  0  0
   -9.4138    3.8121  -17.7319 C   0  0  0  0  0  0  0  0  0  0  0  0
   -9.3467    2.6263  -18.6602 C   0  0  0  0  0  0  0  0  0  0  0  0
   -9.6344    3.9898  -19.2105 C   0  0  0  0  0  0  0  0  0  0  0  0
   -8.1544    4.4394  -15.6586 C   0  0  0  0  0  0  0  0  0  0  0  0
   -7.0479    4.9823  -15.0024 C   0  0  0  0  0  0  0  0  0  0  0  0
   -7.0945    5.3493  -13.5671 C   0  0  0  0  0  0  0  0  0  0  0  0
   -6.7278    6.4231  -13.2899 O   0  0  0  0  0  0  0  0  0  0  0  0
   -7.6086    4.2019  -12.6664 N   0  0  0  0  0  0  0  0  0  0  0  0
   -7.8597    4.1701  -11.2937 C   0  0  0  0  0  0  0  0  0  0  0  0
   -7.4727    5.2612  -10.4828 C   0  0  0  0  0  0  0  0  0  0  0  0
   -7.6855    5.2553   -9.1007 C   0  0  0  0  0  0  0  0  0  0  0  0
   -8.2902    4.1403   -8.5648 C   0  0  0  0  0  0  0  0  0  0  0  0
   -8.6853    3.0767   -9.3531 C   0  0  0  0  0  0  0  0  0  0  0  0
   -8.4807    3.0551  -10.7239 C   0  0  0  0  0  0  0  0  0  0  0  0
   -9.3886    2.1391   -8.4818 C   0  0  0  0  0  0  0  0  0  0  0  0
   -9.9762    1.1574   -8.8862 O   0  0  0  0  0  0  0  0  0  0  0  0
   -9.3289    2.6539   -7.2158 N   0  0  0  0  0  0  0  0  0  0  0  0
  -10.0511    2.0941   -6.1034 C   0  0  0  0  0  0  0  0  0  0  0  0
   -8.7068    3.8671   -7.1914 C   0  0  0  0  0  0  0  0  0  0  0  0
   -8.5498    4.6488   -6.2701 O   0  0  0  0  0  0  0  0  0  0  0  0
   -5.9407    5.3622  -15.7794 C   0  0  0  0  0  0  0  0  0  0  0  0
  1  2  1  0
  2  3  2  0
  3  4  1  0
  5  4  1  1
  5  6  1  0
  6  7  1  0
  7  8  1  0
  8  9  2  0
  8 10  2  0
  8 11  1  0
  4 12  1  0
 12 13  2  0
 13 14  1  0
 14 15  1  0
 15 16  1  0
 16 17  1  0
 14 18  2  0
 18 19  1  0
 19 20  1  0
 20 21  2  0
 20 22  1  0
 22 23  1  0
 23 24  2  0
 24 25  1  0
 25 26  2  0
 26 27  1  0
 27 28  2  0
 27 29  1  0
 29 30  2  0
 29 31  1  0
 31 32  1  0
 31 33  1  0
 33 34  2  0
 19 35  2  0
 35  2  1  0
 11  5  1  0
 35 12  1  0
 17 15  1  0
 28 23  1  0
 33 26  1  0
M  END
>  <name>  (960) 
P126034

>  <alias>  (960) 
None

>  <smina_score_min>  (960) 
-9.701

>  <exports>  (960) 
['/opt/xchem-fragalysis-2/maxwin/BulkDock/OUTPUTS/openbind_xx01zvns2b_c2_elabs_1LOUTNY.sdf', '/opt/xchem-fragalysis-2/maxwin/BulkDock/OUTPUTS/openbind_xx01zvns2b_c2_elabs_1LSYIIV.sdf']

>  <tags>  (960) 
syndirella_placed,openbind_xx01zvns2b_c2_elabs,openbind_xx01zvns2b_c2_elabs_scored_6.2plus,syndirella_product,openbind_xx01zvns2b_c2_elabs_scored,openbind_xx01zvns2b_c2_elabs_scored_top80percent,BulkDock Fragalysis export

>  <subsites>  (960) 
1 - Z4590/B/203/1

>  <smiles>  (960) 
Cc1nn([C@@H]2CCS(=O)(=O)C2)c2nc(C3CC3)cc(C(=O)Nc3ccc4c(c3)C(=O)N(C)C4=O)c12

>  <HIPPO Pose ID>  (960) 
126034

>  <energy_score>  (960) 
-60.949398

>  <inchikey>  (960) 
JWXIYERWWSHEJX-OAHLLOKOSA-N

>  <gnina_score_min>  (960) 
6.468

>  <gnina_score>  (960) 
6.482

>  <ref_mols>  (960) 
Z3559a

>  <HIPPO Compound ID>  (960) 
188210

>  <distance_score>  (960) 
0.451898

>  <rmsd(smina/fragmenstein)>  (960) 
0.322

>  <ref_pdb>  (960) 
Z3559a

>  <inspiration_score>  (960) 
None

$$$$
P126036
     RDKit          3D

 35 40  0  0  0  0  0  0  0  0999 V2000
   -9.0903    3.5126   -4.6726 C   0  0  0  0  0  0  0  0  0  0  0  0
   -9.4103    2.6192   -5.8813 C   0  0  0  0  0  0  0  0  0  0  0  0
  -10.8424    2.1248   -5.7487 C   0  0  0  0  0  0  0  0  0  0  0  0
   -9.1769    3.2792   -7.1564 N   0  0  0  0  0  0  0  0  0  0  0  0
   -8.3897    4.4833   -7.2434 C   0  0  0  0  0  0  0  0  0  0  0  0
   -8.1673    4.6321   -8.6956 C   0  0  0  0  0  0  0  0  0  0  0  0
   -7.5755    5.6833   -9.3528 C   0  0  0  0  0  0  0  0  0  0  0  0
   -7.4437    5.5749  -10.7295 C   0  0  0  0  0  0  0  0  0  0  0  0
   -7.8899    4.4326  -11.4264 C   0  0  0  0  0  0  0  0  0  0  0  0
   -7.6852    4.3791  -12.7996 N   0  0  0  0  0  0  0  0  0  0  0  0
   -7.1309    5.4428  -13.7737 C   0  0  0  0  0  0  0  0  0  0  0  0
   -6.6876    6.5032  -13.5648 O   0  0  0  0  0  0  0  0  0  0  0  0
   -7.1442    4.9989  -15.1749 C   0  0  0  0  0  0  0  0  0  0  0  0
   -8.2713    4.4483  -15.7821 C   0  0  0  0  0  0  0  0  0  0  0  0
   -8.2714    4.2290  -17.1632 C   0  0  0  0  0  0  0  0  0  0  0  0
   -9.5453    3.7530  -17.8230 C   0  0  0  0  0  0  0  0  0  0  0  0
   -9.5257    2.5195  -18.6863 C   0  0  0  0  0  0  0  0  0  0  0  0
   -9.7279    3.8670  -19.3130 C   0  0  0  0  0  0  0  0  0  0  0  0
   -7.2002    4.5039  -17.9543 N   0  0  0  0  0  0  0  0  0  0  0  0
   -6.1415    5.0353  -17.3230 C   0  0  0  0  0  0  0  0  0  0  0  0
   -6.0341    5.2930  -15.9715 C   0  0  0  0  0  0  0  0  0  0  0  0
   -4.7431    5.8354  -15.8097 C   0  0  0  0  0  0  0  0  0  0  0  0
   -4.0660    5.9093  -16.9591 N   0  0  0  0  0  0  0  0  0  0  0  0
   -4.9638    5.4637  -17.8792 N   0  0  0  0  0  0  0  0  0  0  0  0
   -4.5966    5.4073  -19.2867 C   0  0  0  0  0  0  0  0  0  0  0  0
   -4.6843    6.7313  -20.0128 C   0  0  0  0  0  0  0  0  0  0  0  0
   -4.2862    7.9463  -19.4453 C   0  0  0  0  0  0  0  0  0  0  0  0
   -4.3615    9.1031  -20.2078 C   0  0  0  0  0  0  0  0  0  0  0  0
   -4.7923    9.1374  -21.4865 N   0  0  0  0  0  0  0  0  0  0  0  0
   -5.1265    7.9508  -22.0361 C   0  0  0  0  0  0  0  0  0  0  0  0
   -5.0886    6.7453  -21.3524 C   0  0  0  0  0  0  0  0  0  0  0  0
   -8.4983    3.3737  -10.7504 C   0  0  0  0  0  0  0  0  0  0  0  0
   -8.6300    3.5097   -9.3803 C   0  0  0  0  0  0  0  0  0  0  0  0
   -9.2538    2.6206   -8.3889 C   0  0  0  0  0  0  0  0  0  0  0  0
   -9.7498    1.5443   -8.6518 O   0  0  0  0  0  0  0  0  0  0  0  0
  1  2  1  0
  2  3  1  0
  2  4  1  0
  4  5  1  0
  5  6  1  0
  6  7  2  0
  7  8  1  0
  8  9  2  0
  9 10  1  0
 10 11  1  0
 11 12  2  0
 11 13  1  0
 13 14  2  0
 14 15  1  0
 15 16  1  0
 16 17  1  0
 17 18  1  0
 15 19  2  0
 19 20  1  0
 20 21  2  0
 21 22  1  0
 22 23  2  0
 23 24  1  0
 24 25  1  0
 25 26  1  0
 26 27  2  0
 27 28  1  0
 28 29  2  0
 29 30  1  0
 30 31  2  0
  9 32  1  0
 32 33  2  0
 33 34  1  0
 34 35  2  0
 34  4  1  0
 33  6  1  0
 21 13  1  0
 31 26  1  0
 18 16  1  0
 24 20  1  0
M  END
>  <name>  (961) 
P126036

>  <alias>  (961) 
None

>  <smina_score_min>  (961) 
-9.265

>  <exports>  (961) 
['/opt/xchem-fragalysis-2/maxwin/BulkDock/OUTPUTS/openbind_xx01zvns2b_c2_elabs_1LOUTNY.sdf', '/opt/xchem-fragalysis-2/maxwin/BulkDock/OUTPUTS/openbind_xx01zvns2b_c2_elabs_1LSYIIV.sdf']

>  <tags>  (961) 
syndirella_placed,openbind_xx01zvns2b_c2_elabs,openbind_xx01zvns2b_c2_elabs_scored_6.2plus,syndirella_product,openbind_xx01zvns2b_c2_elabs_scored,openbind_xx01zvns2b_c2_elabs_scored_top80percent,BulkDock Fragalysis export

>  <subsites>  (961) 
1 - Z4590/B/203/1

>  <smiles>  (961) 
CC(C)N1Cc2ccc(NC(=O)c3cc(C4CC4)nc4c3cnn4Cc3ccncc3)cc2C1=O

>  <HIPPO Pose ID>  (961) 
126036

>  <energy_score>  (961) 
-37.899759

>  <inchikey>  (961) 
CTGRINVJLWGLKE-UHFFFAOYSA-N

>  <gnina_score_min>  (961) 
6.515

>  <gnina_score>  (961) 
6.515

>  <ref_mols>  (961) 
Z3559a

>  <HIPPO Compound ID>  (961) 
188211

>  <distance_score>  (961) 
0.573816

>  <rmsd(smina/fragmenstein)>  (961) 
0.505

>  <ref_pdb>  (961) 
Z3559a

>  <inspiration_score>  (961) 
None

$$$$
P126037
     RDKit          3D

 35 40  0  0  0  0  0  0  0  0999 V2000
   -6.4526    6.4048  -13.5415 O   0  0  0  0  0  0  0  0  0  0  0  0
   -6.9251    5.3572  -13.7483 C   0  0  0  0  0  0  0  0  0  0  0  0
   -7.5074    4.3125  -12.7734 N   0  0  0  0  0  0  0  0  0  0  0  0
   -7.7098    4.3738  -11.4006 C   0  0  0  0  0  0  0  0  0  0  0  0
   -7.2477    5.5045  -10.6995 C   0  0  0  0  0  0  0  0  0  0  0  0
   -7.3935    5.6098   -9.3241 C   0  0  0  0  0  0  0  0  0  0  0  0
   -8.0172    4.5707   -8.6776 C   0  0  0  0  0  0  0  0  0  0  0  0
   -8.4989    3.4482   -9.3621 C   0  0  0  0  0  0  0  0  0  0  0  0
   -8.3456    3.3254  -10.7319 C   0  0  0  0  0  0  0  0  0  0  0  0
   -9.1463    2.5313   -8.3681 C   0  0  0  0  0  0  0  0  0  0  0  0
   -9.3469    3.4216   -7.1936 N   0  0  0  0  0  0  0  0  0  0  0  0
   -9.4172    2.7227   -5.9188 C   0  0  0  0  0  0  0  0  0  0  0  0
  -10.7554    2.0287   -5.7406 C   0  0  0  0  0  0  0  0  0  0  0  0
  -10.7337    0.8218   -6.3460 F   0  0  0  0  0  0  0  0  0  0  0  0
  -11.0074    1.8408   -4.4277 F   0  0  0  0  0  0  0  0  0  0  0  0
   -8.2873    4.4251   -7.2246 C   0  0  0  0  0  0  0  0  0  0  0  0
   -6.9955    4.9331  -15.1575 C   0  0  0  0  0  0  0  0  0  0  0  0
   -8.1498    4.3947  -15.7323 C   0  0  0  0  0  0  0  0  0  0  0  0
   -8.2290    4.2496  -17.1220 C   0  0  0  0  0  0  0  0  0  0  0  0
   -9.5188    3.7583  -17.7408 C   0  0  0  0  0  0  0  0  0  0  0  0
   -9.4934    2.5674  -18.6651 C   0  0  0  0  0  0  0  0  0  0  0  0
   -9.7887    3.9312  -19.2132 C   0  0  0  0  0  0  0  0  0  0  0  0
   -7.2239    4.6193  -17.9557 N   0  0  0  0  0  0  0  0  0  0  0  0
   -6.1345    5.1219  -17.3555 C   0  0  0  0  0  0  0  0  0  0  0  0
   -5.9372    5.2845  -16.0006 C   0  0  0  0  0  0  0  0  0  0  0  0
   -4.6552    5.8633  -15.8919 C   0  0  0  0  0  0  0  0  0  0  0  0
   -4.0948    6.1074  -17.0809 N   0  0  0  0  0  0  0  0  0  0  0  0
   -5.0461    5.6969  -17.9605 N   0  0  0  0  0  0  0  0  0  0  0  0
   -5.0293    6.2094  -19.3181 C   0  0  0  0  0  0  0  0  0  0  0  0
   -4.3039    5.3358  -20.2924 C   0  0  0  0  0  0  0  0  0  0  0  0
   -2.9109    5.2631  -20.3196 C   0  0  0  0  0  0  0  0  0  0  0  0
   -2.3122    4.4941  -21.3043 C   0  0  0  0  0  0  0  0  0  0  0  0
   -2.9962    3.8006  -22.2480 N   0  0  0  0  0  0  0  0  0  0  0  0
   -4.3382    3.9073  -22.2036 C   0  0  0  0  0  0  0  0  0  0  0  0
   -5.0254    4.6222  -21.2466 C   0  0  0  0  0  0  0  0  0  0  0  0
  1  2  2  0
  2  3  1  0
  3  4  1  0
  4  5  2  0
  5  6  1  0
  6  7  2  0
  7  8  1  0
  8  9  2  0
  8 10  1  0
 10 11  1  0
 11 12  1  0
 12 13  1  0
 13 14  1  0
 13 15  1  0
 11 16  1  0
  2 17  1  0
 17 18  2  0
 18 19  1  0
 19 20  1  0
 20 21  1  0
 21 22  1  0
 19 23  2  0
 23 24  1  0
 24 25  2  0
 25 26  1  0
 26 27  2  0
 27 28  1  0
 28 29  1  0
 29 30  1  0
 30 31  2  0
 31 32  1  0
 32 33  2  0
 33 34  1  0
 34 35  2  0
  9  4  1  0
 25 17  1  0
 35 30  1  0
 16  7  1  0
 22 20  1  0
 28 24  1  0
M  END
>  <name>  (962) 
P126037

>  <alias>  (962) 
None

>  <smina_score_min>  (962) 
-9.981

>  <exports>  (962) 
['/opt/xchem-fragalysis-2/maxwin/BulkDock/OUTPUTS/openbind_xx01zvns2b_c2_elabs_1LOUTNY.sdf', '/opt/xchem-fragalysis-2/maxwin/BulkDock/OUTPUTS/openbind_xx01zvns2b_c2_elabs_1LSYIIV.sdf']

>  <tags>  (962) 
syndirella_placed,openbind_xx01zvns2b_c2_elabs,openbind_xx01zvns2b_c2_elabs_scored_6.2plus,syndirella_product,openbind_xx01zvns2b_c2_elabs_scored,openbind_xx01zvns2b_c2_elabs_scored_top80percent,BulkDock Fragalysis export

>  <subsites>  (962) 
1 - Z4590/B/203/1

>  <smiles>  (962) 
O=C(Nc1ccc2c(c1)CN(CC(F)F)C2)c1cc(C2CC2)nc2c1cnn2Cc1ccncc1

>  <HIPPO Pose ID>  (962) 
126037

>  <energy_score>  (962) 
-72.576009

>  <inchikey>  (962) 
KTTKPPCFWALPTH-UHFFFAOYSA-N

>  <gnina_score_min>  (962) 
6.717

>  <gnina_score>  (962) 
6.605

>  <ref_mols>  (962) 
Z3559a

>  <HIPPO Compound ID>  (962) 
188212

>  <distance_score>  (962) 
0.638407

>  <rmsd(smina/fragmenstein)>  (962) 
0.601

>  <ref_pdb>  (962) 
Z3559a

>  <inspiration_score>  (962) 
None

$$$$
P126038
     RDKit          3D

 35 40  0  0  0  0  0  0  0  0999 V2000
   -9.7676    5.4763   -4.1269 C   0  0  0  0  0  0  0  0  0  0  0  0
   -8.4574    4.7670   -4.3669 C   0  0  0  0  0  0  0  0  0  0  0  0
   -8.6386    3.3085   -4.7882 C   0  0  0  0  0  0  0  0  0  0  0  0
   -9.5455    2.9057   -5.9737 C   0  0  0  0  0  0  0  0  0  0  0  0
   -9.2753    3.4464   -7.2854 N   0  0  0  0  0  0  0  0  0  0  0  0
   -8.3467    4.5444   -7.4280 C   0  0  0  0  0  0  0  0  0  0  0  0
   -8.1705    4.6474   -8.8971 C   0  0  0  0  0  0  0  0  0  0  0  0
   -7.7170    5.7366   -9.5999 C   0  0  0  0  0  0  0  0  0  0  0  0
   -7.6647    5.6218  -10.9781 C   0  0  0  0  0  0  0  0  0  0  0  0
   -8.0235    4.4274  -11.6353 C   0  0  0  0  0  0  0  0  0  0  0  0
   -7.8854    4.3973  -13.0264 N   0  0  0  0  0  0  0  0  0  0  0  0
   -7.4108    5.4911  -14.0129 C   0  0  0  0  0  0  0  0  0  0  0  0
   -7.1347    6.6118  -13.8263 O   0  0  0  0  0  0  0  0  0  0  0  0
   -7.1803    5.0097  -15.3851 C   0  0  0  0  0  0  0  0  0  0  0  0
   -8.1769    4.4534  -16.1944 C   0  0  0  0  0  0  0  0  0  0  0  0
   -7.9280    4.2824  -17.5689 C   0  0  0  0  0  0  0  0  0  0  0  0
   -8.9439    3.7997  -18.5703 C   0  0  0  0  0  0  0  0  0  0  0  0
  -10.4095    3.6625  -18.3174 C   0  0  0  0  0  0  0  0  0  0  0  0
   -9.5359    2.4350  -18.3922 C   0  0  0  0  0  0  0  0  0  0  0  0
   -6.7436    4.5927  -18.1431 N   0  0  0  0  0  0  0  0  0  0  0  0
   -5.8305    5.1243  -17.3286 C   0  0  0  0  0  0  0  0  0  0  0  0
   -5.9560    5.3484  -15.9769 C   0  0  0  0  0  0  0  0  0  0  0  0
   -4.7274    5.9381  -15.6070 C   0  0  0  0  0  0  0  0  0  0  0  0
   -3.8787    6.0634  -16.6351 N   0  0  0  0  0  0  0  0  0  0  0  0
   -4.5985    5.5919  -17.6850 N   0  0  0  0  0  0  0  0  0  0  0  0
   -4.0402    5.5783  -19.0263 C   0  0  0  0  0  0  0  0  0  0  0  0
   -4.2928    6.8570  -19.7845 C   0  0  0  0  0  0  0  0  0  0  0  0
   -4.9324    6.8193  -21.0267 C   0  0  0  0  0  0  0  0  0  0  0  0
   -5.1090    8.0035  -21.7236 C   0  0  0  0  0  0  0  0  0  0  0  0
   -4.7216    9.2133  -21.2650 N   0  0  0  0  0  0  0  0  0  0  0  0
   -4.0920    9.2285  -20.0700 C   0  0  0  0  0  0  0  0  0  0  0  0
   -3.8526    8.0957  -19.3072 C   0  0  0  0  0  0  0  0  0  0  0  0
   -8.4712    3.3189  -10.8973 C   0  0  0  0  0  0  0  0  0  0  0  0
   -8.5656    3.4557   -9.5148 C   0  0  0  0  0  0  0  0  0  0  0  0
   -9.0867    2.5310   -8.4359 C   0  0  0  0  0  0  0  0  0  0  0  0
  1  2  1  0
  2  3  1  0
  3  4  1  0
  4  5  1  0
  5  6  1  0
  6  7  1  0
  7  8  2  0
  8  9  1  0
  9 10  2  0
 10 11  1  0
 11 12  1  0
 12 13  2  0
 12 14  1  0
 14 15  2  0
 15 16  1  0
 16 17  1  0
 17 18  1  0
 18 19  1  0
 16 20  2  0
 20 21  1  0
 21 22  2  0
 22 23  1  0
 23 24  2  0
 24 25  1  0
 25 26  1  0
 26 27  1  0
 27 28  2  0
 28 29  1  0
 29 30  2  0
 30 31  1  0
 31 32  2  0
 10 33  1  0
 33 34  2  0
 34 35  1  0
 35  5  1  0
 34  7  1  0
 22 14  1  0
 32 27  1  0
 19 17  1  0
 25 21  1  0
M  END
>  <name>  (963) 
P126038

>  <alias>  (963) 
None

>  <smina_score_min>  (963) 
-8.915

>  <exports>  (963) 
['/opt/xchem-fragalysis-2/maxwin/BulkDock/OUTPUTS/openbind_xx01zvns2b_c2_elabs_1LOUTNY.sdf', '/opt/xchem-fragalysis-2/maxwin/BulkDock/OUTPUTS/openbind_xx01zvns2b_c2_elabs_1LSYIIV.sdf']

>  <tags>  (963) 
syndirella_placed,openbind_xx01zvns2b_c2_elabs,openbind_xx01zvns2b_c2_elabs_scored_6.2plus,syndirella_product,openbind_xx01zvns2b_c2_elabs_scored,openbind_xx01zvns2b_c2_elabs_scored_top80percent,BulkDock Fragalysis export

>  <subsites>  (963) 
1 - Z4590/B/203/1

>  <smiles>  (963) 
CCCCN1Cc2ccc(NC(=O)c3cc(C4CC4)nc4c3cnn4Cc3ccncc3)cc2C1

>  <HIPPO Pose ID>  (963) 
126038

>  <energy_score>  (963) 
-44.097875

>  <inchikey>  (963) 
IALXOICNDTVWGZ-UHFFFAOYSA-N

>  <gnina_score_min>  (963) 
6.711

>  <gnina_score>  (963) 
6.638

>  <ref_mols>  (963) 
Z3559a

>  <HIPPO Compound ID>  (963) 
188213

>  <distance_score>  (963) 
0.781469

>  <rmsd(smina/fragmenstein)>  (963) 
0.772

>  <ref_pdb>  (963) 
Z3559a

>  <inspiration_score>  (963) 
None

$$$$
P126043
     RDKit          3D

 35 40  0  0  0  0  0  0  0  0999 V2000
   -8.2248    4.8457   -3.6364 C   0  0  0  0  0  0  0  0  0  0  0  0
   -9.4007    3.8901   -3.5566 C   0  0  0  0  0  0  0  0  0  0  0  0
  -10.0950    3.5807   -4.8907 C   0  0  0  0  0  0  0  0  0  0  0  0
   -9.2779    2.6882   -5.8402 C   0  0  0  0  0  0  0  0  0  0  0  0
   -9.1287    3.2560   -7.1600 N   0  0  0  0  0  0  0  0  0  0  0  0
   -9.0878    2.4261   -8.3697 C   0  0  0  0  0  0  0  0  0  0  0  0
   -8.5699    3.3874   -9.3959 C   0  0  0  0  0  0  0  0  0  0  0  0
   -8.4056    3.2730  -10.7678 C   0  0  0  0  0  0  0  0  0  0  0  0
   -7.8797    4.3794  -11.4558 C   0  0  0  0  0  0  0  0  0  0  0  0
   -7.6661    4.3301  -12.8278 N   0  0  0  0  0  0  0  0  0  0  0  0
   -7.0397    5.3706  -13.7845 C   0  0  0  0  0  0  0  0  0  0  0  0
   -6.5354    6.3999  -13.5585 O   0  0  0  0  0  0  0  0  0  0  0  0
   -7.0895    4.9569  -15.1952 C   0  0  0  0  0  0  0  0  0  0  0  0
   -8.2368    4.4229  -15.7824 C   0  0  0  0  0  0  0  0  0  0  0  0
   -8.2763    4.2245  -17.1659 C   0  0  0  0  0  0  0  0  0  0  0  0
   -9.5626    3.7507  -17.8004 C   0  0  0  0  0  0  0  0  0  0  0  0
   -9.7896    3.8920  -19.2820 C   0  0  0  0  0  0  0  0  0  0  0  0
   -9.5487    2.5351  -18.6897 C   0  0  0  0  0  0  0  0  0  0  0  0
   -7.2281    4.5114  -17.9820 N   0  0  0  0  0  0  0  0  0  0  0  0
   -6.1529    5.0311  -17.3710 C   0  0  0  0  0  0  0  0  0  0  0  0
   -6.0024    5.2632  -16.0192 C   0  0  0  0  0  0  0  0  0  0  0  0
   -4.7030    5.7968  -15.8902 C   0  0  0  0  0  0  0  0  0  0  0  0
   -4.0606    5.8831  -17.0600 N   0  0  0  0  0  0  0  0  0  0  0  0
   -4.9974    5.4738  -17.9579 N   0  0  0  0  0  0  0  0  0  0  0  0
   -4.6989    5.4733  -19.3815 C   0  0  0  0  0  0  0  0  0  0  0  0
   -4.7285    6.8412  -20.0181 C   0  0  0  0  0  0  0  0  0  0  0  0
   -4.9970    7.0469  -21.4165 C   0  0  0  0  0  0  0  0  0  0  0  0
   -4.9215    8.3691  -21.7931 C   0  0  0  0  0  0  0  0  0  0  0  0
   -4.5567    9.3864  -20.4730 S   0  0  0  0  0  0  0  0  0  0  0  0
   -4.4594    8.0540  -19.4052 C   0  0  0  0  0  0  0  0  0  0  0  0
   -7.5399    5.5666  -10.7760 C   0  0  0  0  0  0  0  0  0  0  0  0
   -7.7041    5.6765   -9.4077 C   0  0  0  0  0  0  0  0  0  0  0  0
   -8.2130    4.5757   -8.7627 C   0  0  0  0  0  0  0  0  0  0  0  0
   -8.4873    4.4628   -7.3451 C   0  0  0  0  0  0  0  0  0  0  0  0
   -8.1763    5.3192   -6.5395 O   0  0  0  0  0  0  0  0  0  0  0  0
  1  2  1  0
  2  3  1  0
  3  4  1  0
  4  5  1  0
  5  6  1  0
  6  7  1  0
  7  8  2  0
  8  9  1  0
  9 10  1  0
 10 11  1  0
 11 12  2  0
 11 13  1  0
 13 14  2  0
 14 15  1  0
 15 16  1  0
 16 17  1  0
 17 18  1  0
 15 19  2  0
 19 20  1  0
 20 21  2  0
 21 22  1  0
 22 23  2  0
 23 24  1  0
 24 25  1  0
 25 26  1  0
 26 27  1  0
 27 28  2  0
 28 29  1  0
 29 30  1  0
  9 31  2  0
 31 32  1  0
 32 33  2  0
 33 34  1  0
 34 35  2  0
 34  5  1  0
 33  7  1  0
 21 13  1  0
 30 26  2  0
 18 16  1  0
 24 20  1  0
M  END
>  <name>  (964) 
P126043

>  <alias>  (964) 
None

>  <smina_score_min>  (964) 
-8.614

>  <exports>  (964) 
['/opt/xchem-fragalysis-2/maxwin/BulkDock/OUTPUTS/openbind_xx01zvns2b_c2_elabs_1LOUTNY.sdf', '/opt/xchem-fragalysis-2/maxwin/BulkDock/OUTPUTS/openbind_xx01zvns2b_c2_elabs_1LSYIIV.sdf']

>  <tags>  (964) 
syndirella_placed,openbind_xx01zvns2b_c2_elabs,openbind_xx01zvns2b_c2_elabs_scored_6.2plus,syndirella_product,openbind_xx01zvns2b_c2_elabs_scored,openbind_xx01zvns2b_c2_elabs_scored_top80percent,BulkDock Fragalysis export

>  <subsites>  (964) 
1 - Z4590/B/203/1

>  <smiles>  (964) 
CCCCN1Cc2cc(NC(=O)c3cc(C4CC4)nc4c3cnn4Cc3ccsc3)ccc2C1=O

>  <HIPPO Pose ID>  (964) 
126043

>  <energy_score>  (964) 
-33.835957

>  <inchikey>  (964) 
YHDFSXFMUWWQBM-UHFFFAOYSA-N

>  <gnina_score_min>  (964) 
6.506

>  <gnina_score>  (964) 
6.588

>  <ref_mols>  (964) 
Z3559a

>  <HIPPO Compound ID>  (964) 
188223

>  <distance_score>  (964) 
0.538659

>  <rmsd(smina/fragmenstein)>  (964) 
0.775

>  <ref_pdb>  (964) 
Z3559a

>  <inspiration_score>  (964) 
None

$$$$
P126046
     RDKit          3D

 35 40  0  0  0  0  0  0  0  0999 V2000
   -3.8546    1.0040  -10.0469 C   0  0  0  0  0  0  0  0  0  0  0  0
   -4.7128    2.0403  -10.7649 C   0  0  0  0  0  0  0  0  0  0  0  0
   -3.8076    3.0900  -11.4151 C   0  0  0  0  0  0  0  0  0  0  0  0
   -5.7203    2.7190   -9.8114 C   0  0  0  0  0  0  0  0  0  0  0  0
   -6.9673    1.8377   -9.5222 C   0  0  0  0  0  0  0  0  0  0  0  0
   -8.0733    2.2861   -8.5796 N   0  0  0  0  0  0  0  0  0  0  0  0
   -7.9201    3.6869   -8.0490 C   0  0  0  0  0  0  0  0  0  0  0  0
   -8.2933    4.5358   -9.2285 C   0  0  0  0  0  0  0  0  0  0  0  0
   -7.7405    5.7289   -9.6551 C   0  0  0  0  0  0  0  0  0  0  0  0
   -7.7002    5.9474  -11.0343 C   0  0  0  0  0  0  0  0  0  0  0  0
   -8.1875    4.9631  -11.9038 C   0  0  0  0  0  0  0  0  0  0  0  0
   -7.9246    4.9194  -13.2507 N   0  0  0  0  0  0  0  0  0  0  0  0
   -7.0478    5.8226  -14.1241 C   0  0  0  0  0  0  0  0  0  0  0  0
   -6.4673    6.7953  -13.8590 O   0  0  0  0  0  0  0  0  0  0  0  0
   -7.0424    5.2837  -15.5001 C   0  0  0  0  0  0  0  0  0  0  0  0
   -8.1834    4.6843  -16.0533 C   0  0  0  0  0  0  0  0  0  0  0  0
   -8.2009    4.2859  -17.3848 C   0  0  0  0  0  0  0  0  0  0  0  0
   -9.4892    3.7406  -17.9474 C   0  0  0  0  0  0  0  0  0  0  0  0
   -9.7592    3.8034  -19.4226 C   0  0  0  0  0  0  0  0  0  0  0  0
   -9.4840    2.4807  -18.7666 C   0  0  0  0  0  0  0  0  0  0  0  0
   -7.1386    4.4663  -18.1999 N   0  0  0  0  0  0  0  0  0  0  0  0
   -6.0786    5.0712  -17.6377 C   0  0  0  0  0  0  0  0  0  0  0  0
   -5.9418    5.4785  -16.3264 C   0  0  0  0  0  0  0  0  0  0  0  0
   -4.6556    6.0452  -16.2587 C   0  0  0  0  0  0  0  0  0  0  0  0
   -4.0350    6.0543  -17.4432 N   0  0  0  0  0  0  0  0  0  0  0  0
   -4.9396    5.4826  -18.2806 N   0  0  0  0  0  0  0  0  0  0  0  0
   -4.8006    5.4625  -19.7337 C   0  0  0  0  0  0  0  0  0  0  0  0
   -3.4810    5.9497  -20.2605 C   0  0  0  0  0  0  0  0  0  0  0  0
   -2.2186    5.2888  -20.0838 C   0  0  0  0  0  0  0  0  0  0  0  0
   -1.1795    5.9532  -20.6970 C   0  0  0  0  0  0  0  0  0  0  0  0
   -1.7043    7.3638  -21.5006 S   0  0  0  0  0  0  0  0  0  0  0  0
   -3.3234    7.0939  -21.0241 C   0  0  0  0  0  0  0  0  0  0  0  0
   -8.8697    3.8486  -11.4417 C   0  0  0  0  0  0  0  0  0  0  0  0
   -8.9734    3.6801  -10.0927 C   0  0  0  0  0  0  0  0  0  0  0  0
   -9.2933    2.4089   -9.3850 C   0  0  0  0  0  0  0  0  0  0  0  0
  1  2  1  0
  2  3  1  0
  2  4  1  0
  4  5  1  0
  5  6  1  0
  6  7  1  0
  7  8  1  0
  8  9  2  0
  9 10  1  0
 10 11  2  0
 11 12  1  0
 12 13  1  0
 13 14  2  0
 13 15  1  0
 15 16  2  0
 16 17  1  0
 17 18  1  0
 18 19  1  0
 19 20  1  0
 17 21  2  0
 21 22  1  0
 22 23  2  0
 23 24  1  0
 24 25  2  0
 25 26  1  0
 26 27  1  0
 27 28  1  0
 28 29  1  0
 29 30  2  0
 30 31  1  0
 31 32  1  0
 11 33  1  0
 33 34  2  0
 34 35  1  0
 35  6  1  0
 34  8  1  0
 23 15  1  0
 32 28  2  0
 20 18  1  0
 26 22  1  0
M  END
>  <name>  (965) 
P126046

>  <alias>  (965) 
None

>  <smina_score_min>  (965) 
-7.063

>  <exports>  (965) 
['/opt/xchem-fragalysis-2/maxwin/BulkDock/OUTPUTS/openbind_xx01zvns2b_c2_elabs_1LOUTNY.sdf', '/opt/xchem-fragalysis-2/maxwin/BulkDock/OUTPUTS/openbind_xx01zvns2b_c2_elabs_1LSYIIV.sdf']

>  <tags>  (965) 
syndirella_placed,openbind_xx01zvns2b_c2_elabs,openbind_xx01zvns2b_c2_elabs_scored_6.2plus,syndirella_product,openbind_xx01zvns2b_c2_elabs_scored,openbind_xx01zvns2b_c2_elabs_scored_top80percent,BulkDock Fragalysis export

>  <subsites>  (965) 
1 - Z4590/B/203/1

>  <smiles>  (965) 
CC(C)CCN1Cc2ccc(NC(=O)c3cc(C4CC4)nc4c3cnn4Cc3ccsc3)cc2C1

>  <HIPPO Pose ID>  (965) 
126046

>  <energy_score>  (965) 
-23.318482

>  <inchikey>  (965) 
ULVCCORKQMCCBX-UHFFFAOYSA-N

>  <gnina_score_min>  (965) 
6.43

>  <gnina_score>  (965) 
6.697

>  <ref_mols>  (965) 
Z3559a

>  <HIPPO Compound ID>  (965) 
188225

>  <distance_score>  (965) 
0.888175

>  <rmsd(smina/fragmenstein)>  (965) 
1.967

>  <ref_pdb>  (965) 
Z3559a

>  <inspiration_score>  (965) 
None

$$$$
P126049
     RDKit          3D

 35 40  0  0  0  0  0  0  0  0999 V2000
   -8.6504    3.8889   -3.8927 C   0  0  0  0  0  0  0  0  0  0  0  0
   -8.1481    3.1594   -4.9994 O   0  0  0  0  0  0  0  0  0  0  0  0
   -9.1925    2.7290   -5.8856 C   0  0  0  0  0  0  0  0  0  0  0  0
   -8.8810    3.2432   -7.1795 N   0  0  0  0  0  0  0  0  0  0  0  0
   -8.5921    4.5544   -7.3781 C   0  0  0  0  0  0  0  0  0  0  0  0
   -8.6168    5.5067   -6.6188 O   0  0  0  0  0  0  0  0  0  0  0  0
   -8.2938    4.6846   -8.7867 C   0  0  0  0  0  0  0  0  0  0  0  0
   -7.8384    5.7940   -9.4538 C   0  0  0  0  0  0  0  0  0  0  0  0
   -7.6377    5.6495  -10.8177 C   0  0  0  0  0  0  0  0  0  0  0  0
   -7.9074    4.4281  -11.4757 C   0  0  0  0  0  0  0  0  0  0  0  0
   -7.6645    4.3518  -12.8416 N   0  0  0  0  0  0  0  0  0  0  0  0
   -7.0436    5.3855  -13.8108 C   0  0  0  0  0  0  0  0  0  0  0  0
   -6.5689    6.4318  -13.5994 O   0  0  0  0  0  0  0  0  0  0  0  0
   -7.0938    4.9485  -15.2159 C   0  0  0  0  0  0  0  0  0  0  0  0
   -8.2469    4.3897  -15.7755 C   0  0  0  0  0  0  0  0  0  0  0  0
   -8.3170    4.1823  -17.1553 C   0  0  0  0  0  0  0  0  0  0  0  0
   -9.6099    3.7152  -17.7743 C   0  0  0  0  0  0  0  0  0  0  0  0
   -9.6030    2.5141  -18.6830 C   0  0  0  0  0  0  0  0  0  0  0  0
   -9.8591    3.8788  -19.2511 C   0  0  0  0  0  0  0  0  0  0  0  0
   -7.2885    4.4636  -17.9887 N   0  0  0  0  0  0  0  0  0  0  0  0
   -6.2130    5.0116  -17.4095 C   0  0  0  0  0  0  0  0  0  0  0  0
   -6.0369    5.2811  -16.0699 C   0  0  0  0  0  0  0  0  0  0  0  0
   -4.7684    5.8947  -16.0036 C   0  0  0  0  0  0  0  0  0  0  0  0
   -4.1893    6.0261  -17.2034 N   0  0  0  0  0  0  0  0  0  0  0  0
   -5.0945    5.4754  -18.0525 N   0  0  0  0  0  0  0  0  0  0  0  0
   -4.9727    5.5035  -19.5083 C   0  0  0  0  0  0  0  0  0  0  0  0
   -3.6349    5.9233  -20.0483 C   0  0  0  0  0  0  0  0  0  0  0  0
   -2.3754    5.3003  -19.7519 C   0  0  0  0  0  0  0  0  0  0  0  0
   -1.3209    5.8843  -20.4178 C   0  0  0  0  0  0  0  0  0  0  0  0
   -1.8274    7.1686  -21.4200 S   0  0  0  0  0  0  0  0  0  0  0  0
   -3.4585    6.9539  -20.9566 C   0  0  0  0  0  0  0  0  0  0  0  0
   -8.3991    3.3202  -10.7717 C   0  0  0  0  0  0  0  0  0  0  0  0
   -8.5707    3.4797   -9.4086 C   0  0  0  0  0  0  0  0  0  0  0  0
   -9.0521    2.5725   -8.3608 C   0  0  0  0  0  0  0  0  0  0  0  0
   -9.5772    1.4995   -8.5791 O   0  0  0  0  0  0  0  0  0  0  0  0
  1  2  1  0
  2  3  1  0
  3  4  1  0
  4  5  1  0
  5  6  2  0
  5  7  1  0
  7  8  2  0
  8  9  1  0
  9 10  2  0
 10 11  1  0
 11 12  1  0
 12 13  2  0
 12 14  1  0
 14 15  2  0
 15 16  1  0
 16 17  1  0
 17 18  1  0
 18 19  1  0
 16 20  2  0
 20 21  1  0
 21 22  2  0
 22 23  1  0
 23 24  2  0
 24 25  1  0
 25 26  1  0
 26 27  1  0
 27 28  1  0
 28 29  2  0
 29 30  1  0
 30 31  1  0
 10 32  1  0
 32 33  2  0
 33 34  1  0
 34 35  2  0
 34  4  1  0
 33  7  1  0
 22 14  1  0
 31 27  2  0
 19 17  1  0
 25 21  1  0
M  END
>  <name>  (966) 
P126049

>  <alias>  (966) 
None

>  <smina_score_min>  (966) 
-8.662

>  <exports>  (966) 
['/opt/xchem-fragalysis-2/maxwin/BulkDock/OUTPUTS/openbind_xx01zvns2b_c2_elabs_1LOUTNY.sdf', '/opt/xchem-fragalysis-2/maxwin/BulkDock/OUTPUTS/openbind_xx01zvns2b_c2_elabs_1LSYIIV.sdf']

>  <tags>  (966) 
syndirella_placed,openbind_xx01zvns2b_c2_elabs,openbind_xx01zvns2b_c2_elabs_scored_6.2plus,syndirella_product,openbind_xx01zvns2b_c2_elabs_scored,openbind_xx01zvns2b_c2_elabs_scored_top80percent,BulkDock Fragalysis export

>  <subsites>  (966) 
1 - Z4590/B/203/1

>  <smiles>  (966) 
COCN1C(=O)c2ccc(NC(=O)c3cc(C4CC4)nc4c3cnn4Cc3ccsc3)cc2C1=O

>  <HIPPO Pose ID>  (966) 
126049

>  <energy_score>  (966) 
-57.208798

>  <inchikey>  (966) 
KKLXMYZRJJSOTC-UHFFFAOYSA-N

>  <gnina_score_min>  (966) 
6.279

>  <gnina_score>  (966) 
6.367

>  <ref_mols>  (966) 
Z3559a

>  <HIPPO Compound ID>  (966) 
188227

>  <distance_score>  (966) 
0.567203

>  <rmsd(smina/fragmenstein)>  (966) 
0.459

>  <ref_pdb>  (966) 
Z3559a

>  <inspiration_score>  (966) 
None

$$$$
P126053
     RDKit          3D

 35 40  0  0  0  0  0  0  0  0999 V2000
  -10.4126    1.6031   -5.8043 C   0  0  0  0  0  0  0  0  0  0  0  0
  -10.0267    3.0549   -5.9860 C   0  0  0  0  0  0  0  0  0  0  0  0
   -9.4306    3.6223   -4.6908 C   0  0  0  0  0  0  0  0  0  0  0  0
   -9.1416    3.2633   -7.1306 N   0  0  0  0  0  0  0  0  0  0  0  0
   -8.3645    4.4758   -7.2239 C   0  0  0  0  0  0  0  0  0  0  0  0
   -8.0378    4.5676   -8.6613 C   0  0  0  0  0  0  0  0  0  0  0  0
   -7.3899    5.5879   -9.3159 C   0  0  0  0  0  0  0  0  0  0  0  0
   -7.2892    5.4951  -10.6980 C   0  0  0  0  0  0  0  0  0  0  0  0
   -7.8197    4.3960  -11.4042 C   0  0  0  0  0  0  0  0  0  0  0  0
   -7.7175    4.3877  -12.7906 N   0  0  0  0  0  0  0  0  0  0  0  0
   -6.9883    5.3567  -13.7494 C   0  0  0  0  0  0  0  0  0  0  0  0
   -6.4241    6.3561  -13.5312 O   0  0  0  0  0  0  0  0  0  0  0  0
   -7.0661    4.9390  -15.1621 C   0  0  0  0  0  0  0  0  0  0  0  0
   -8.2285    4.4206  -15.7405 C   0  0  0  0  0  0  0  0  0  0  0  0
   -8.2869    4.2199  -17.1237 C   0  0  0  0  0  0  0  0  0  0  0  0
   -9.5783    3.7549  -17.7545 C   0  0  0  0  0  0  0  0  0  0  0  0
   -9.5663    2.5567  -18.6691 C   0  0  0  0  0  0  0  0  0  0  0  0
   -9.8192    3.9232  -19.2324 C   0  0  0  0  0  0  0  0  0  0  0  0
   -7.2463    4.4961  -17.9465 N   0  0  0  0  0  0  0  0  0  0  0  0
   -6.1563    4.9946  -17.3502 C   0  0  0  0  0  0  0  0  0  0  0  0
   -5.9850    5.2293  -16.0020 C   0  0  0  0  0  0  0  0  0  0  0  0
   -4.6808    5.7590  -15.8988 C   0  0  0  0  0  0  0  0  0  0  0  0
   -4.0663    5.8615  -17.0827 N   0  0  0  0  0  0  0  0  0  0  0  0
   -5.0115    5.4321  -17.9596 N   0  0  0  0  0  0  0  0  0  0  0  0
   -4.7900    5.5381  -19.3949 C   0  0  0  0  0  0  0  0  0  0  0  0
   -4.9010    6.9432  -19.9416 C   0  0  0  0  0  0  0  0  0  0  0  0
   -4.5671    7.1832  -21.2802 C   0  0  0  0  0  0  0  0  0  0  0  0
   -4.6624    8.4686  -21.8069 C   0  0  0  0  0  0  0  0  0  0  0  0
   -5.1199    9.4823  -20.9834 C   0  0  0  0  0  0  0  0  0  0  0  0
   -5.4949    9.2947  -19.6997 N   0  0  0  0  0  0  0  0  0  0  0  0
   -5.3447    8.0389  -19.2052 C   0  0  0  0  0  0  0  0  0  0  0  0
   -8.4622    3.3578  -10.7286 C   0  0  0  0  0  0  0  0  0  0  0  0
   -8.5583    3.4781   -9.3528 C   0  0  0  0  0  0  0  0  0  0  0  0
   -9.2962    2.6570   -8.3836 C   0  0  0  0  0  0  0  0  0  0  0  0
   -9.9672    1.6970   -8.7039 O   0  0  0  0  0  0  0  0  0  0  0  0
  1  2  1  0
  2  3  1  0
  2  4  1  0
  4  5  1  0
  5  6  1  0
  6  7  2  0
  7  8  1  0
  8  9  2  0
  9 10  1  0
 10 11  1  0
 11 12  2  0
 11 13  1  0
 13 14  2  0
 14 15  1  0
 15 16  1  0
 16 17  1  0
 17 18  1  0
 15 19  2  0
 19 20  1  0
 20 21  2  0
 21 22  1  0
 22 23  2  0
 23 24  1  0
 24 25  1  0
 25 26  1  0
 26 27  2  0
 27 28  1  0
 28 29  2  0
 29 30  1  0
 30 31  2  0
  9 32  1  0
 32 33  2  0
 33 34  1  0
 34 35  2  0
 34  4  1  0
 33  6  1  0
 21 13  1  0
 31 26  1  0
 18 16  1  0
 24 20  1  0
M  END
>  <name>  (967) 
P126053

>  <alias>  (967) 
None

>  <smina_score_min>  (967) 
-9.089

>  <exports>  (967) 
['/opt/xchem-fragalysis-2/maxwin/BulkDock/OUTPUTS/openbind_xx01zvns2b_c2_elabs_1LOUTNY.sdf', '/opt/xchem-fragalysis-2/maxwin/BulkDock/OUTPUTS/openbind_xx01zvns2b_c2_elabs_1LSYIIV.sdf']

>  <tags>  (967) 
syndirella_placed,openbind_xx01zvns2b_c2_elabs,openbind_xx01zvns2b_c2_elabs_scored_6.2plus,syndirella_product,openbind_xx01zvns2b_c2_elabs_scored,openbind_xx01zvns2b_c2_elabs_scored_top80percent,BulkDock Fragalysis export

>  <subsites>  (967) 
1 - Z4590/B/203/1

>  <smiles>  (967) 
CC(C)N1Cc2ccc(NC(=O)c3cc(C4CC4)nc4c3cnn4Cc3cccnc3)cc2C1=O

>  <HIPPO Pose ID>  (967) 
126053

>  <energy_score>  (967) 
-17.722575

>  <inchikey>  (967) 
DEGOYYXSQSJZQE-UHFFFAOYSA-N

>  <gnina_score_min>  (967) 
6.537

>  <gnina_score>  (967) 
6.496

>  <ref_mols>  (967) 
Z3559a

>  <HIPPO Compound ID>  (967) 
188232

>  <distance_score>  (967) 
0.577231

>  <rmsd(smina/fragmenstein)>  (967) 
0.29

>  <ref_pdb>  (967) 
Z3559a

>  <inspiration_score>  (967) 
None

$$$$
P126054
     RDKit          3D

 35 40  0  0  0  0  0  0  0  0999 V2000
   -6.7805    6.4890  -13.3271 O   0  0  0  0  0  0  0  0  0  0  0  0
   -7.2144    5.4320  -13.5674 C   0  0  0  0  0  0  0  0  0  0  0  0
   -7.7767    4.3437  -12.6278 N   0  0  0  0  0  0  0  0  0  0  0  0
   -8.0026    4.3636  -11.2551 C   0  0  0  0  0  0  0  0  0  0  0  0
   -7.7015    5.5249  -10.5205 C   0  0  0  0  0  0  0  0  0  0  0  0
   -7.8698    5.5669   -9.1397 C   0  0  0  0  0  0  0  0  0  0  0  0
   -8.3409    4.4316   -8.5163 C   0  0  0  0  0  0  0  0  0  0  0  0
   -8.6633    3.2791   -9.2373 C   0  0  0  0  0  0  0  0  0  0  0  0
   -8.4984    3.2254  -10.6130 C   0  0  0  0  0  0  0  0  0  0  0  0
   -9.1998    2.2460   -8.2933 C   0  0  0  0  0  0  0  0  0  0  0  0
   -8.9072    2.7985   -6.9632 N   0  0  0  0  0  0  0  0  0  0  0  0
   -9.7345    2.3586   -5.8523 C   0  0  0  0  0  0  0  0  0  0  0  0
  -11.0669    3.0410   -5.5806 C   0  0  0  0  0  0  0  0  0  0  0  0
  -10.8508    4.2871   -5.0728 F   0  0  0  0  0  0  0  0  0  0  0  0
  -11.7570    2.3656   -4.6245 F   0  0  0  0  0  0  0  0  0  0  0  0
   -8.6240    4.2244   -7.0674 C   0  0  0  0  0  0  0  0  0  0  0  0
   -7.1763    4.9931  -14.9726 C   0  0  0  0  0  0  0  0  0  0  0  0
   -8.2923    4.4810  -15.6356 C   0  0  0  0  0  0  0  0  0  0  0  0
   -8.2381    4.2572  -17.0174 C   0  0  0  0  0  0  0  0  0  0  0  0
   -9.4946    3.8016  -17.7344 C   0  0  0  0  0  0  0  0  0  0  0  0
   -9.6322    3.9575  -19.2272 C   0  0  0  0  0  0  0  0  0  0  0  0
   -9.4543    2.5929  -18.6346 C   0  0  0  0  0  0  0  0  0  0  0  0
   -7.1227    4.5016  -17.7582 N   0  0  0  0  0  0  0  0  0  0  0  0
   -6.0674    4.9663  -17.0671 C   0  0  0  0  0  0  0  0  0  0  0  0
   -6.0149    5.2260  -15.7117 C   0  0  0  0  0  0  0  0  0  0  0  0
   -4.7070    5.7007  -15.4836 C   0  0  0  0  0  0  0  0  0  0  0  0
   -3.9658    5.7245  -16.5949 N   0  0  0  0  0  0  0  0  0  0  0  0
   -4.8393    5.3291  -17.5577 N   0  0  0  0  0  0  0  0  0  0  0  0
   -4.4621    5.4452  -18.9567 C   0  0  0  0  0  0  0  0  0  0  0  0
   -4.4501    6.8963  -19.3444 C   0  0  0  0  0  0  0  0  0  0  0  0
   -3.2855    7.6648  -19.3601 C   0  0  0  0  0  0  0  0  0  0  0  0
   -3.3715    9.0340  -19.5939 C   0  0  0  0  0  0  0  0  0  0  0  0
   -4.6257    9.5928  -19.7847 C   0  0  0  0  0  0  0  0  0  0  0  0
   -5.7772    8.8854  -19.7718 N   0  0  0  0  0  0  0  0  0  0  0  0
   -5.6516    7.5500  -19.5728 C   0  0  0  0  0  0  0  0  0  0  0  0
  1  2  2  0
  2  3  1  0
  3  4  1  0
  4  5  2  0
  5  6  1  0
  6  7  2  0
  7  8  1  0
  8  9  2  0
  8 10  1  0
 10 11  1  0
 11 12  1  0
 12 13  1  0
 13 14  1  0
 13 15  1  0
 11 16  1  0
  2 17  1  0
 17 18  2  0
 18 19  1  0
 19 20  1  0
 20 21  1  0
 21 22  1  0
 19 23  2  0
 23 24  1  0
 24 25  2  0
 25 26  1  0
 26 27  2  0
 27 28  1  0
 28 29  1  0
 29 30  1  0
 30 31  2  0
 31 32  1  0
 32 33  2  0
 33 34  1  0
 34 35  2  0
  9  4  1  0
 25 17  1  0
 35 30  1  0
 16  7  1  0
 22 20  1  0
 28 24  1  0
M  END
>  <name>  (968) 
P126054

>  <alias>  (968) 
None

>  <smina_score_min>  (968) 
-9.598

>  <exports>  (968) 
['/opt/xchem-fragalysis-2/maxwin/BulkDock/OUTPUTS/openbind_xx01zvns2b_c2_elabs_1LOUTNY.sdf', '/opt/xchem-fragalysis-2/maxwin/BulkDock/OUTPUTS/openbind_xx01zvns2b_c2_elabs_1LSYIIV.sdf']

>  <tags>  (968) 
syndirella_placed,openbind_xx01zvns2b_c2_elabs,openbind_xx01zvns2b_c2_elabs_scored_6.2plus,syndirella_product,openbind_xx01zvns2b_c2_elabs_scored,openbind_xx01zvns2b_c2_elabs_scored_top80percent,BulkDock Fragalysis export

>  <subsites>  (968) 
1 - Z4590/B/203/1

>  <smiles>  (968) 
O=C(Nc1ccc2c(c1)CN(CC(F)F)C2)c1cc(C2CC2)nc2c1cnn2Cc1cccnc1

>  <HIPPO Pose ID>  (968) 
126054

>  <energy_score>  (968) 
-37.120227

>  <inchikey>  (968) 
QMDHTASPIXMMAF-UHFFFAOYSA-N

>  <gnina_score_min>  (968) 
6.538

>  <gnina_score>  (968) 
6.533

>  <ref_mols>  (968) 
Z3559a

>  <HIPPO Compound ID>  (968) 
188233

>  <distance_score>  (968) 
0.433208

>  <rmsd(smina/fragmenstein)>  (968) 
0.935

>  <ref_pdb>  (968) 
Z3559a

>  <inspiration_score>  (968) 
None

$$$$
P126055
     RDKit          3D

 35 40  0  0  0  0  0  0  0  0999 V2000
  -11.4331    2.3415   -5.1370 C   0  0  0  0  0  0  0  0  0  0  0  0
  -10.7535    3.6485   -4.7713 C   0  0  0  0  0  0  0  0  0  0  0  0
   -9.2390    3.5428   -4.7773 C   0  0  0  0  0  0  0  0  0  0  0  0
   -8.6911    2.8828   -6.0441 C   0  0  0  0  0  0  0  0  0  0  0  0
   -9.0593    3.6356   -7.2323 N   0  0  0  0  0  0  0  0  0  0  0  0
   -8.3754    4.9333   -7.2870 C   0  0  0  0  0  0  0  0  0  0  0  0
   -8.1199    5.1686   -8.7300 C   0  0  0  0  0  0  0  0  0  0  0  0
   -7.6947    6.3327   -9.3414 C   0  0  0  0  0  0  0  0  0  0  0  0
   -7.4844    6.3139  -10.7167 C   0  0  0  0  0  0  0  0  0  0  0  0
   -7.6959    5.1379  -11.4436 C   0  0  0  0  0  0  0  0  0  0  0  0
   -7.4607    5.1513  -12.8125 N   0  0  0  0  0  0  0  0  0  0  0  0
   -7.7038    4.0768  -13.8729 C   0  0  0  0  0  0  0  0  0  0  0  0
   -8.0684    2.9793  -13.7634 O   0  0  0  0  0  0  0  0  0  0  0  0
   -7.4289    4.5325  -15.2451 C   0  0  0  0  0  0  0  0  0  0  0  0
   -8.3487    4.1623  -16.2332 C   0  0  0  0  0  0  0  0  0  0  0  0
   -8.0518    4.3414  -17.5830 C   0  0  0  0  0  0  0  0  0  0  0  0
   -8.9505    3.8697  -18.6877 C   0  0  0  0  0  0  0  0  0  0  0  0
  -10.4309    3.6951  -18.5541 C   0  0  0  0  0  0  0  0  0  0  0  0
   -9.5295    2.4871  -18.6032 C   0  0  0  0  0  0  0  0  0  0  0  0
   -6.9035    4.9133  -17.9911 N   0  0  0  0  0  0  0  0  0  0  0  0
   -6.0557    5.2589  -17.0191 C   0  0  0  0  0  0  0  0  0  0  0  0
   -6.2284    5.1201  -15.6531 C   0  0  0  0  0  0  0  0  0  0  0  0
   -5.0114    5.5898  -15.1151 C   0  0  0  0  0  0  0  0  0  0  0  0
   -4.1647    6.0476  -16.0495 N   0  0  0  0  0  0  0  0  0  0  0  0
   -4.8173    5.7946  -17.2101 N   0  0  0  0  0  0  0  0  0  0  0  0
   -4.1967    6.0490  -18.5038 C   0  0  0  0  0  0  0  0  0  0  0  0
   -4.6333    7.3372  -19.1568 C   0  0  0  0  0  0  0  0  0  0  0  0
   -4.4578    7.5049  -20.5358 C   0  0  0  0  0  0  0  0  0  0  0  0
   -4.7982    8.7099  -21.1436 C   0  0  0  0  0  0  0  0  0  0  0  0
   -5.3327    9.7129  -20.3550 C   0  0  0  0  0  0  0  0  0  0  0  0
   -5.5519    9.5869  -19.0290 N   0  0  0  0  0  0  0  0  0  0  0  0
   -5.1543    8.4221  -18.4570 C   0  0  0  0  0  0  0  0  0  0  0  0
   -8.1337    3.9629  -10.8075 C   0  0  0  0  0  0  0  0  0  0  0  0
   -8.3455    3.9960   -9.4431 C   0  0  0  0  0  0  0  0  0  0  0  0
   -8.7964    2.9181   -8.5051 C   0  0  0  0  0  0  0  0  0  0  0  0
  1  2  1  0
  2  3  1  0
  3  4  1  0
  4  5  1  0
  5  6  1  0
  6  7  1  0
  7  8  2  0
  8  9  1  0
  9 10  2  0
 10 11  1  0
 11 12  1  0
 12 13  2  0
 12 14  1  0
 14 15  2  0
 15 16  1  0
 16 17  1  0
 17 18  1  0
 18 19  1  0
 16 20  2  0
 20 21  1  0
 21 22  2  0
 22 23  1  0
 23 24  2  0
 24 25  1  0
 25 26  1  0
 26 27  1  0
 27 28  2  0
 28 29  1  0
 29 30  2  0
 30 31  1  0
 31 32  2  0
 10 33  1  0
 33 34  2  0
 34 35  1  0
 35  5  1  0
 34  7  1  0
 22 14  1  0
 32 27  1  0
 19 17  1  0
 25 21  1  0
M  END
>  <name>  (969) 
P126055

>  <alias>  (969) 
None

>  <smina_score_min>  (969) 
-8.289

>  <exports>  (969) 
['/opt/xchem-fragalysis-2/maxwin/BulkDock/OUTPUTS/openbind_xx01zvns2b_c2_elabs_1LOUTNY.sdf', '/opt/xchem-fragalysis-2/maxwin/BulkDock/OUTPUTS/openbind_xx01zvns2b_c2_elabs_1LSYIIV.sdf']

>  <tags>  (969) 
syndirella_placed,openbind_xx01zvns2b_c2_elabs,openbind_xx01zvns2b_c2_elabs_scored_6.2plus,syndirella_product,openbind_xx01zvns2b_c2_elabs_scored,openbind_xx01zvns2b_c2_elabs_scored_top80percent,BulkDock Fragalysis export

>  <subsites>  (969) 
1 - Z4590/B/203/1

>  <smiles>  (969) 
CCCCN1Cc2ccc(NC(=O)c3cc(C4CC4)nc4c3cnn4Cc3cccnc3)cc2C1

>  <HIPPO Pose ID>  (969) 
126055

>  <energy_score>  (969) 
-20.350433

>  <inchikey>  (969) 
HPNBSXIZUOKYBG-UHFFFAOYSA-N

>  <gnina_score_min>  (969) 
6.53

>  <gnina_score>  (969) 
6.435

>  <ref_mols>  (969) 
Z3559a

>  <HIPPO Compound ID>  (969) 
188234

>  <distance_score>  (969) 
1.165348

>  <rmsd(smina/fragmenstein)>  (969) 
0.924

>  <ref_pdb>  (969) 
Z3559a

>  <inspiration_score>  (969) 
None

$$$$
P126056
     RDKit          3D

 35 40  0  0  0  0  0  0  0  0999 V2000
   -4.1174    6.2300  -14.4194 C   0  0  0  0  0  0  0  0  0  0  0  0
   -4.7399    5.7868  -15.6931 C   0  0  0  0  0  0  0  0  0  0  0  0
   -4.0195    5.8282  -16.8171 N   0  0  0  0  0  0  0  0  0  0  0  0
   -4.8590    5.3529  -17.7925 N   0  0  0  0  0  0  0  0  0  0  0  0
   -4.4101    5.2798  -19.1492 C   0  0  0  0  0  0  0  0  0  0  0  0
   -3.0757    5.5804  -19.4349 C   0  0  0  0  0  0  0  0  0  0  0  0
   -2.6229    5.4749  -20.7498 C   0  0  0  0  0  0  0  0  0  0  0  0
   -3.5103    5.0974  -21.7486 C   0  0  0  0  0  0  0  0  0  0  0  0
   -4.8173    4.8284  -21.3867 C   0  0  0  0  0  0  0  0  0  0  0  0
   -5.2734    4.8966  -20.1191 N   0  0  0  0  0  0  0  0  0  0  0  0
   -6.0975    4.9943  -17.2696 C   0  0  0  0  0  0  0  0  0  0  0  0
   -7.1617    4.4755  -17.9150 N   0  0  0  0  0  0  0  0  0  0  0  0
   -8.2679    4.2337  -17.1739 C   0  0  0  0  0  0  0  0  0  0  0  0
   -9.5252    3.7691  -17.8725 C   0  0  0  0  0  0  0  0  0  0  0  0
   -9.6316    3.8334  -19.3723 C   0  0  0  0  0  0  0  0  0  0  0  0
   -9.5111    2.5045  -18.6876 C   0  0  0  0  0  0  0  0  0  0  0  0
   -8.3188    4.4848  -15.8068 C   0  0  0  0  0  0  0  0  0  0  0  0
   -7.2079    5.0346  -15.1740 C   0  0  0  0  0  0  0  0  0  0  0  0
   -7.3038    5.5259  -13.7953 C   0  0  0  0  0  0  0  0  0  0  0  0
   -6.9935    6.6347  -13.6029 O   0  0  0  0  0  0  0  0  0  0  0  0
   -7.8159    4.4458  -12.8180 N   0  0  0  0  0  0  0  0  0  0  0  0
   -7.9581    4.4737  -11.4375 C   0  0  0  0  0  0  0  0  0  0  0  0
   -7.5157    5.6173  -10.7408 C   0  0  0  0  0  0  0  0  0  0  0  0
   -7.6068    5.7047   -9.3589 C   0  0  0  0  0  0  0  0  0  0  0  0
   -8.1665    4.6376   -8.6986 C   0  0  0  0  0  0  0  0  0  0  0  0
   -8.6276    3.5154   -9.3842 C   0  0  0  0  0  0  0  0  0  0  0  0
   -8.5204    3.3925  -10.7572 C   0  0  0  0  0  0  0  0  0  0  0  0
   -9.2488    2.6231   -8.3946 C   0  0  0  0  0  0  0  0  0  0  0  0
   -9.7632    1.5573   -8.6657 O   0  0  0  0  0  0  0  0  0  0  0  0
   -9.1636    3.2756   -7.1604 N   0  0  0  0  0  0  0  0  0  0  0  0
   -9.3993    2.6152   -5.8854 C   0  0  0  0  0  0  0  0  0  0  0  0
  -10.8323    2.1224   -5.7546 C   0  0  0  0  0  0  0  0  0  0  0  0
   -9.0802    3.5086   -4.6764 C   0  0  0  0  0  0  0  0  0  0  0  0
   -8.3689    4.4756   -7.2445 C   0  0  0  0  0  0  0  0  0  0  0  0
   -6.0447    5.2838  -15.9159 C   0  0  0  0  0  0  0  0  0  0  0  0
  1  2  1  0
  2  3  2  0
  3  4  1  0
  4  5  1  0
  5  6  2  0
  6  7  1  0
  7  8  2  0
  8  9  1  0
  9 10  2  0
  4 11  1  0
 11 12  2  0
 12 13  1  0
 13 14  1  0
 14 15  1  0
 15 16  1  0
 13 17  2  0
 17 18  1  0
 18 19  1  0
 19 20  2  0
 19 21  1  0
 21 22  1  0
 22 23  2  0
 23 24  1  0
 24 25  2  0
 25 26  1  0
 26 27  2  0
 26 28  1  0
 28 29  2  0
 28 30  1  0
 30 31  1  0
 31 32  1  0
 31 33  1  0
 30 34  1  0
 18 35  2  0
 35  2  1  0
 10  5  1  0
 35 11  1  0
 16 14  1  0
 27 22  1  0
 34 25  1  0
M  END
>  <name>  (970) 
P126056

>  <alias>  (970) 
None

>  <smina_score_min>  (970) 
-9.656

>  <exports>  (970) 
['/opt/xchem-fragalysis-2/maxwin/BulkDock/OUTPUTS/openbind_xx01zvns2b_c2_elabs_1LOUTNY.sdf', '/opt/xchem-fragalysis-2/maxwin/BulkDock/OUTPUTS/openbind_xx01zvns2b_c2_elabs_1LSYIIV.sdf']

>  <tags>  (970) 
syndirella_placed,openbind_xx01zvns2b_c2_elabs,openbind_xx01zvns2b_c2_elabs_scored_6.2plus,syndirella_product,openbind_xx01zvns2b_c2_elabs_scored,openbind_xx01zvns2b_c2_elabs_scored_top80percent,BulkDock Fragalysis export

>  <subsites>  (970) 
1 - Z4590/B/203/1

>  <smiles>  (970) 
Cc1nn(-c2ccccn2)c2nc(C3CC3)cc(C(=O)Nc3ccc4c(c3)C(=O)N(C(C)C)C4)c12

>  <HIPPO Pose ID>  (970) 
126056

>  <energy_score>  (970) 
-47.45671

>  <inchikey>  (970) 
KQCRURHPXRBWOR-UHFFFAOYSA-N

>  <gnina_score_min>  (970) 
6.481

>  <gnina_score>  (970) 
6.547

>  <ref_mols>  (970) 
Z3559a

>  <HIPPO Compound ID>  (970) 
188235

>  <distance_score>  (970) 
0.595286

>  <rmsd(smina/fragmenstein)>  (970) 
0.973

>  <ref_pdb>  (970) 
Z3559a

>  <inspiration_score>  (970) 
None

$$$$
P126057
     RDKit          3D

 35 40  0  0  0  0  0  0  0  0999 V2000
   -4.0750    6.3657  -14.4681 C   0  0  0  0  0  0  0  0  0  0  0  0
   -4.7051    5.8895  -15.7257 C   0  0  0  0  0  0  0  0  0  0  0  0
   -3.9966    5.8983  -16.8551 N   0  0  0  0  0  0  0  0  0  0  0  0
   -4.8399    5.4126  -17.8182 N   0  0  0  0  0  0  0  0  0  0  0  0
   -4.3763    5.3102  -19.1719 C   0  0  0  0  0  0  0  0  0  0  0  0
   -5.2442    5.0004  -20.2128 C   0  0  0  0  0  0  0  0  0  0  0  0
   -4.7319    4.8723  -21.5062 C   0  0  0  0  0  0  0  0  0  0  0  0
   -3.3714    5.0382  -21.7301 C   0  0  0  0  0  0  0  0  0  0  0  0
   -2.5705    5.3477  -20.6480 C   0  0  0  0  0  0  0  0  0  0  0  0
   -3.0435    5.5009  -19.3941 N   0  0  0  0  0  0  0  0  0  0  0  0
   -6.0752    5.0657  -17.2761 C   0  0  0  0  0  0  0  0  0  0  0  0
   -7.1402    4.5186  -17.9032 N   0  0  0  0  0  0  0  0  0  0  0  0
   -8.2356    4.2831  -17.1406 C   0  0  0  0  0  0  0  0  0  0  0  0
   -9.4951    3.7689  -17.8024 C   0  0  0  0  0  0  0  0  0  0  0  0
   -9.7039    3.9121  -19.2855 C   0  0  0  0  0  0  0  0  0  0  0  0
   -9.4375    2.5588  -18.6971 C   0  0  0  0  0  0  0  0  0  0  0  0
   -8.2693    4.5706  -15.7805 C   0  0  0  0  0  0  0  0  0  0  0  0
   -7.1537    5.1394  -15.1678 C   0  0  0  0  0  0  0  0  0  0  0  0
   -7.2236    5.5740  -13.7657 C   0  0  0  0  0  0  0  0  0  0  0  0
   -6.9977    6.6872  -13.5051 O   0  0  0  0  0  0  0  0  0  0  0  0
   -7.6780    4.4112  -12.8665 N   0  0  0  0  0  0  0  0  0  0  0  0
   -7.8527    4.3503  -11.4938 C   0  0  0  0  0  0  0  0  0  0  0  0
   -7.5997    5.4596  -10.6685 C   0  0  0  0  0  0  0  0  0  0  0  0
   -7.8280    5.3923   -9.2926 C   0  0  0  0  0  0  0  0  0  0  0  0
   -8.3211    4.2098   -8.7822 C   0  0  0  0  0  0  0  0  0  0  0  0
   -8.5569    3.1062   -9.6062 C   0  0  0  0  0  0  0  0  0  0  0  0
   -8.3198    3.1513  -10.9610 C   0  0  0  0  0  0  0  0  0  0  0  0
   -9.1138    1.9906   -8.7893 C   0  0  0  0  0  0  0  0  0  0  0  0
   -9.5934    2.6863   -7.5882 N   0  0  0  0  0  0  0  0  0  0  0  0
   -9.7075    1.8072   -6.4364 C   0  0  0  0  0  0  0  0  0  0  0  0
  -10.3308    2.4680   -5.2075 C   0  0  0  0  0  0  0  0  0  0  0  0
  -11.4271    3.2003   -5.5340 F   0  0  0  0  0  0  0  0  0  0  0  0
   -9.4602    3.3362   -4.6217 F   0  0  0  0  0  0  0  0  0  0  0  0
   -8.7293    3.8599   -7.3878 C   0  0  0  0  0  0  0  0  0  0  0  0
   -6.0080    5.3840  -15.9276 C   0  0  0  0  0  0  0  0  0  0  0  0
  1  2  1  0
  2  3  2  0
  3  4  1  0
  4  5  1  0
  5  6  2  0
  6  7  1  0
  7  8  2  0
  8  9  1  0
  9 10  2  0
  4 11  1  0
 11 12  2  0
 12 13  1  0
 13 14  1  0
 14 15  1  0
 15 16  1  0
 13 17  2  0
 17 18  1  0
 18 19  1  0
 19 20  2  0
 19 21  1  0
 21 22  1  0
 22 23  2  0
 23 24  1  0
 24 25  2  0
 25 26  1  0
 26 27  2  0
 26 28  1  0
 28 29  1  0
 29 30  1  0
 30 31  1  0
 31 32  1  0
 31 33  1  0
 29 34  1  0
 18 35  2  0
 35  2  1  0
 10  5  1  0
 35 11  1  0
 16 14  1  0
 27 22  1  0
 34 25  1  0
M  END
>  <name>  (971) 
P126057

>  <alias>  (971) 
None

>  <smina_score_min>  (971) 
-9.835

>  <exports>  (971) 
['/opt/xchem-fragalysis-2/maxwin/BulkDock/OUTPUTS/openbind_xx01zvns2b_c2_elabs_1LOUTNY.sdf', '/opt/xchem-fragalysis-2/maxwin/BulkDock/OUTPUTS/openbind_xx01zvns2b_c2_elabs_1LSYIIV.sdf']

>  <tags>  (971) 
syndirella_placed,openbind_xx01zvns2b_c2_elabs,openbind_xx01zvns2b_c2_elabs_scored_6.2plus,syndirella_product,openbind_xx01zvns2b_c2_elabs_scored,openbind_xx01zvns2b_c2_elabs_scored_top80percent,BulkDock Fragalysis export

>  <subsites>  (971) 
1 - Z4590/B/203/1

>  <smiles>  (971) 
Cc1nn(-c2ccccn2)c2nc(C3CC3)cc(C(=O)Nc3ccc4c(c3)CN(CC(F)F)C4)c12

>  <HIPPO Pose ID>  (971) 
126057

>  <energy_score>  (971) 
-53.837658

>  <inchikey>  (971) 
YSSBDPBUFDWTQM-UHFFFAOYSA-N

>  <gnina_score_min>  (971) 
6.625

>  <gnina_score>  (971) 
6.6

>  <ref_mols>  (971) 
Z3559a

>  <HIPPO Compound ID>  (971) 
188236

>  <distance_score>  (971) 
0.509766

>  <rmsd(smina/fragmenstein)>  (971) 
0.475

>  <ref_pdb>  (971) 
Z3559a

>  <inspiration_score>  (971) 
None

$$$$
P126058
     RDKit          3D

 35 40  0  0  0  0  0  0  0  0999 V2000
  -10.2729    1.2772   -6.1625 C   0  0  0  0  0  0  0  0  0  0  0  0
  -10.6311    2.2975   -5.1079 C   0  0  0  0  0  0  0  0  0  0  0  0
  -10.7467    3.7044   -5.6338 C   0  0  0  0  0  0  0  0  0  0  0  0
   -9.4852    4.4178   -6.0987 C   0  0  0  0  0  0  0  0  0  0  0  0
   -8.4447    3.7128   -6.8423 N   0  0  0  0  0  0  0  0  0  0  0  0
   -7.4003    4.7006   -7.1854 C   0  0  0  0  0  0  0  0  0  0  0  0
   -7.5502    4.9609   -8.6395 C   0  0  0  0  0  0  0  0  0  0  0  0
   -7.0170    5.9867   -9.3801 C   0  0  0  0  0  0  0  0  0  0  0  0
   -7.1782    5.9347  -10.7579 C   0  0  0  0  0  0  0  0  0  0  0  0
   -7.8128    4.8430  -11.3762 C   0  0  0  0  0  0  0  0  0  0  0  0
   -7.7711    4.7515  -12.7629 N   0  0  0  0  0  0  0  0  0  0  0  0
   -7.2092    5.7307  -13.8161 C   0  0  0  0  0  0  0  0  0  0  0  0
   -6.7627    6.8022  -13.6910 O   0  0  0  0  0  0  0  0  0  0  0  0
   -7.1611    5.1502  -15.1680 C   0  0  0  0  0  0  0  0  0  0  0  0
   -8.2896    4.5766  -15.7478 C   0  0  0  0  0  0  0  0  0  0  0  0
   -8.2730    4.2563  -17.1037 C   0  0  0  0  0  0  0  0  0  0  0  0
   -9.5412    3.7508  -17.7527 C   0  0  0  0  0  0  0  0  0  0  0  0
   -9.4878    2.5678  -18.6840 C   0  0  0  0  0  0  0  0  0  0  0  0
   -9.7812    3.9346  -19.2277 C   0  0  0  0  0  0  0  0  0  0  0  0
   -7.1881    4.4636  -17.8880 N   0  0  0  0  0  0  0  0  0  0  0  0
   -6.1040    4.9997  -17.2927 C   0  0  0  0  0  0  0  0  0  0  0  0
   -6.0101    5.3371  -15.9519 C   0  0  0  0  0  0  0  0  0  0  0  0
   -4.6849    5.8091  -15.7852 C   0  0  0  0  0  0  0  0  0  0  0  0
   -3.9983    6.2633  -14.5483 C   0  0  0  0  0  0  0  0  0  0  0  0
   -4.0026    5.7999  -16.9319 N   0  0  0  0  0  0  0  0  0  0  0  0
   -4.8835    5.3391  -17.8729 N   0  0  0  0  0  0  0  0  0  0  0  0
   -4.4634    5.2571  -19.2444 C   0  0  0  0  0  0  0  0  0  0  0  0
   -5.3461    4.8729  -20.2470 C   0  0  0  0  0  0  0  0  0  0  0  0
   -4.8784    4.7659  -21.5589 C   0  0  0  0  0  0  0  0  0  0  0  0
   -3.5505    5.0439  -21.8457 C   0  0  0  0  0  0  0  0  0  0  0  0
   -2.7346    5.4307  -20.8017 C   0  0  0  0  0  0  0  0  0  0  0  0
   -3.1552    5.5432  -19.5241 N   0  0  0  0  0  0  0  0  0  0  0  0
   -8.3971    3.8356  -10.6073 C   0  0  0  0  0  0  0  0  0  0  0  0
   -8.2870    3.9426   -9.2286 C   0  0  0  0  0  0  0  0  0  0  0  0
   -8.8430    3.0818   -8.1440 C   0  0  0  0  0  0  0  0  0  0  0  0
  1  2  1  0
  2  3  1  0
  3  4  1  0
  4  5  1  0
  5  6  1  0
  6  7  1  0
  7  8  2  0
  8  9  1  0
  9 10  2  0
 10 11  1  0
 11 12  1  0
 12 13  2  0
 12 14  1  0
 14 15  2  0
 15 16  1  0
 16 17  1  0
 17 18  1  0
 18 19  1  0
 16 20  2  0
 20 21  1  0
 21 22  2  0
 22 23  1  0
 23 24  1  0
 23 25  2  0
 25 26  1  0
 26 27  1  0
 27 28  2  0
 28 29  1  0
 29 30  2  0
 30 31  1  0
 31 32  2  0
 10 33  1  0
 33 34  2  0
 34 35  1  0
 35  5  1  0
 34  7  1  0
 22 14  1  0
 32 27  1  0
 19 17  1  0
 26 21  1  0
M  END
>  <name>  (972) 
P126058

>  <alias>  (972) 
None

>  <smina_score_min>  (972) 
-8.736

>  <exports>  (972) 
['/opt/xchem-fragalysis-2/maxwin/BulkDock/OUTPUTS/openbind_xx01zvns2b_c2_elabs_1LOUTNY.sdf', '/opt/xchem-fragalysis-2/maxwin/BulkDock/OUTPUTS/openbind_xx01zvns2b_c2_elabs_1LSYIIV.sdf']

>  <tags>  (972) 
syndirella_placed,openbind_xx01zvns2b_c2_elabs,openbind_xx01zvns2b_c2_elabs_scored_6.2plus,syndirella_product,openbind_xx01zvns2b_c2_elabs_scored,openbind_xx01zvns2b_c2_elabs_scored_top80percent,BulkDock Fragalysis export

>  <subsites>  (972) 
1 - Z4590/B/203/1

>  <smiles>  (972) 
CCCCN1Cc2ccc(NC(=O)c3cc(C4CC4)nc4c3c(C)nn4-c3ccccn3)cc2C1

>  <HIPPO Pose ID>  (972) 
126058

>  <energy_score>  (972) 
-15.161606

>  <inchikey>  (972) 
FOEBPFZKQBWFCM-UHFFFAOYSA-N

>  <gnina_score_min>  (972) 
6.291

>  <gnina_score>  (972) 
6.561

>  <ref_mols>  (972) 
Z3559a

>  <HIPPO Compound ID>  (972) 
188237

>  <distance_score>  (972) 
0.895948

>  <rmsd(smina/fragmenstein)>  (972) 
0.921

>  <ref_pdb>  (972) 
Z3559a

>  <inspiration_score>  (972) 
None

$$$$
P126059
     RDKit          3D

 35 40  0  0  0  0  0  0  0  0999 V2000
   -2.8257    4.1964  -23.4915 C   0  0  0  0  0  0  0  0  0  0  0  0
   -2.8457    4.6708  -22.0943 C   0  0  0  0  0  0  0  0  0  0  0  0
   -1.8692    4.9872  -21.1778 C   0  0  0  0  0  0  0  0  0  0  0  0
   -2.5402    5.4137  -20.0058 C   0  0  0  0  0  0  0  0  0  0  0  0
   -3.8905    5.3450  -20.2792 C   0  0  0  0  0  0  0  0  0  0  0  0
   -5.1325    5.7314  -19.5683 C   0  0  0  0  0  0  0  0  0  0  0  0
   -5.1363    5.4871  -18.1305 N   0  0  0  0  0  0  0  0  0  0  0  0
   -4.2017    6.0303  -17.3022 N   0  0  0  0  0  0  0  0  0  0  0  0
   -4.7261    5.8497  -16.0828 C   0  0  0  0  0  0  0  0  0  0  0  0
   -6.0003    5.2433  -16.1129 C   0  0  0  0  0  0  0  0  0  0  0  0
   -7.0319    4.9074  -15.2249 C   0  0  0  0  0  0  0  0  0  0  0  0
   -6.9143    5.3082  -13.8073 C   0  0  0  0  0  0  0  0  0  0  0  0
   -6.3233    6.2921  -13.5866 O   0  0  0  0  0  0  0  0  0  0  0  0
   -7.6240    4.3265  -12.8433 N   0  0  0  0  0  0  0  0  0  0  0  0
   -7.8275    4.3985  -11.4700 C   0  0  0  0  0  0  0  0  0  0  0  0
   -7.3665    5.5363  -10.7773 C   0  0  0  0  0  0  0  0  0  0  0  0
   -7.5060    5.6533   -9.4002 C   0  0  0  0  0  0  0  0  0  0  0  0
   -8.1217    4.6175   -8.7385 C   0  0  0  0  0  0  0  0  0  0  0  0
   -8.6054    3.5039   -9.4206 C   0  0  0  0  0  0  0  0  0  0  0  0
   -8.4686    3.3600  -10.7901 C   0  0  0  0  0  0  0  0  0  0  0  0
   -9.2520    2.6306   -8.4290 C   0  0  0  0  0  0  0  0  0  0  0  0
   -9.7797    1.5707   -8.6985 O   0  0  0  0  0  0  0  0  0  0  0  0
   -9.1619    3.2864   -7.1956 N   0  0  0  0  0  0  0  0  0  0  0  0
   -9.3879    2.6255   -5.9167 C   0  0  0  0  0  0  0  0  0  0  0  0
  -10.8127    2.1106   -5.7810 C   0  0  0  0  0  0  0  0  0  0  0  0
   -9.0849    3.5292   -4.7110 C   0  0  0  0  0  0  0  0  0  0  0  0
   -8.3463    4.4731   -7.2851 C   0  0  0  0  0  0  0  0  0  0  0  0
   -8.2108    4.3740  -15.7605 C   0  0  0  0  0  0  0  0  0  0  0  0
   -8.3251    4.1830  -17.1397 C   0  0  0  0  0  0  0  0  0  0  0  0
   -9.6312    3.7222  -17.7342 C   0  0  0  0  0  0  0  0  0  0  0  0
   -9.6352    2.5422  -18.6720 C   0  0  0  0  0  0  0  0  0  0  0  0
   -9.9225    3.9160  -19.2006 C   0  0  0  0  0  0  0  0  0  0  0  0
   -7.3229    4.4700  -17.9974 N   0  0  0  0  0  0  0  0  0  0  0  0
   -6.2231    4.9985  -17.4505 C   0  0  0  0  0  0  0  0  0  0  0  0
   -4.0741    4.8695  -21.5488 O   0  0  0  0  0  0  0  0  0  0  0  0
  1  2  1  0
  2  3  2  0
  3  4  1  0
  4  5  2  0
  5  6  1  0
  6  7  1  0
  7  8  1  0
  8  9  2  0
  9 10  1  0
 10 11  2  0
 11 12  1  0
 12 13  2  0
 12 14  1  0
 14 15  1  0
 15 16  2  0
 16 17  1  0
 17 18  2  0
 18 19  1  0
 19 20  2  0
 19 21  1  0
 21 22  2  0
 21 23  1  0
 23 24  1  0
 24 25  1  0
 24 26  1  0
 23 27  1  0
 11 28  1  0
 28 29  2  0
 29 30  1  0
 30 31  1  0
 31 32  1  0
 29 33  1  0
 33 34  2  0
  5 35  1  0
 35  2  1  0
 34  7  1  0
 34 10  1  0
 20 15  1  0
 32 30  1  0
 27 18  1  0
M  END
>  <name>  (973) 
P126059

>  <alias>  (973) 
None

>  <smina_score_min>  (973) 
-9.564

>  <exports>  (973) 
['/opt/xchem-fragalysis-2/maxwin/BulkDock/OUTPUTS/openbind_xx01zvns2b_c2_elabs_1LOUTNY.sdf', '/opt/xchem-fragalysis-2/maxwin/BulkDock/OUTPUTS/openbind_xx01zvns2b_c2_elabs_1LSYIIV.sdf']

>  <tags>  (973) 
syndirella_placed,openbind_xx01zvns2b_c2_elabs,openbind_xx01zvns2b_c2_elabs_scored_6.2plus,syndirella_product,openbind_xx01zvns2b_c2_elabs_scored,openbind_xx01zvns2b_c2_elabs_scored_top80percent,BulkDock Fragalysis export

>  <subsites>  (973) 
1 - Z4590/B/203/1

>  <smiles>  (973) 
Cc1ccc(Cn2ncc3c(C(=O)Nc4ccc5c(c4)C(=O)N(C(C)C)C5)cc(C4CC4)nc32)o1

>  <HIPPO Pose ID>  (973) 
126059

>  <energy_score>  (973) 
-39.783064

>  <inchikey>  (973) 
JWZNVSCYSUYPGV-UHFFFAOYSA-N

>  <gnina_score_min>  (973) 
6.45

>  <gnina_score>  (973) 
6.5

>  <ref_mols>  (973) 
Z3559a

>  <HIPPO Compound ID>  (973) 
188238

>  <distance_score>  (973) 
0.603689

>  <rmsd(smina/fragmenstein)>  (973) 
0.417

>  <ref_pdb>  (973) 
Z3559a

>  <inspiration_score>  (973) 
None

$$$$
P126060
     RDKit          3D

 35 40  0  0  0  0  0  0  0  0999 V2000
   -2.0067    4.8910  -22.7112 C   0  0  0  0  0  0  0  0  0  0  0  0
   -3.2678    4.7546  -21.9591 C   0  0  0  0  0  0  0  0  0  0  0  0
   -4.3591    3.9212  -22.0637 C   0  0  0  0  0  0  0  0  0  0  0  0
   -5.2635    4.3202  -21.0509 C   0  0  0  0  0  0  0  0  0  0  0  0
   -4.6594    5.3581  -20.3737 C   0  0  0  0  0  0  0  0  0  0  0  0
   -5.1056    6.2705  -19.3036 C   0  0  0  0  0  0  0  0  0  0  0  0
   -5.0931    5.7060  -17.9603 N   0  0  0  0  0  0  0  0  0  0  0  0
   -4.1715    6.1456  -17.0580 N   0  0  0  0  0  0  0  0  0  0  0  0
   -4.7429    5.8904  -15.8758 C   0  0  0  0  0  0  0  0  0  0  0  0
   -6.0090    5.2860  -15.9990 C   0  0  0  0  0  0  0  0  0  0  0  0
   -7.0761    4.9187  -15.1741 C   0  0  0  0  0  0  0  0  0  0  0  0
   -7.0966    5.3584  -13.7651 C   0  0  0  0  0  0  0  0  0  0  0  0
   -6.7741    6.4589  -13.5438 O   0  0  0  0  0  0  0  0  0  0  0  0
   -7.6551    4.2698  -12.8223 N   0  0  0  0  0  0  0  0  0  0  0  0
   -7.8382    4.2759  -11.4435 C   0  0  0  0  0  0  0  0  0  0  0  0
   -7.5989    5.4449  -10.7013 C   0  0  0  0  0  0  0  0  0  0  0  0
   -7.8137    5.4754   -9.3245 C   0  0  0  0  0  0  0  0  0  0  0  0
   -8.2509    4.3182   -8.7126 C   0  0  0  0  0  0  0  0  0  0  0  0
   -8.4741    3.1515   -9.4380 C   0  0  0  0  0  0  0  0  0  0  0  0
   -8.2853    3.1138  -10.8098 C   0  0  0  0  0  0  0  0  0  0  0  0
   -8.9333    2.0691   -8.5143 C   0  0  0  0  0  0  0  0  0  0  0  0
   -8.8910    2.6712   -7.1637 N   0  0  0  0  0  0  0  0  0  0  0  0
  -10.0373    2.3113   -6.3357 C   0  0  0  0  0  0  0  0  0  0  0  0
  -10.2592    3.0893   -5.0348 C   0  0  0  0  0  0  0  0  0  0  0  0
   -9.1125    3.3297   -4.3553 F   0  0  0  0  0  0  0  0  0  0  0  0
  -10.8003    4.3114   -5.3039 F   0  0  0  0  0  0  0  0  0  0  0  0
   -8.5949    4.1006   -7.2794 C   0  0  0  0  0  0  0  0  0  0  0  0
   -8.2136    4.3682  -15.7719 C   0  0  0  0  0  0  0  0  0  0  0  0
   -8.2722    4.2296  -17.1610 C   0  0  0  0  0  0  0  0  0  0  0  0
   -9.5536    3.7454  -17.7963 C   0  0  0  0  0  0  0  0  0  0  0  0
   -9.5265    2.5325  -18.6889 C   0  0  0  0  0  0  0  0  0  0  0  0
   -9.7862    3.8876  -19.2770 C   0  0  0  0  0  0  0  0  0  0  0  0
   -7.2588    4.6092  -17.9775 N   0  0  0  0  0  0  0  0  0  0  0  0
   -6.1819    5.1180  -17.3600 C   0  0  0  0  0  0  0  0  0  0  0  0
   -3.4457    5.6304  -20.9338 O   0  0  0  0  0  0  0  0  0  0  0  0
  1  2  1  0
  2  3  2  0
  3  4  1  0
  4  5  2  0
  5  6  1  0
  6  7  1  0
  7  8  1  0
  8  9  2  0
  9 10  1  0
 10 11  2  0
 11 12  1  0
 12 13  2  0
 12 14  1  0
 14 15  1  0
 15 16  2  0
 16 17  1  0
 17 18  2  0
 18 19  1  0
 19 20  2  0
 19 21  1  0
 21 22  1  0
 22 23  1  0
 23 24  1  0
 24 25  1  0
 24 26  1  0
 22 27  1  0
 11 28  1  0
 28 29  2  0
 29 30  1  0
 30 31  1  0
 31 32  1  0
 29 33  1  0
 33 34  2  0
  5 35  1  0
 35  2  1  0
 34  7  1  0
 34 10  1  0
 20 15  1  0
 32 30  1  0
 27 18  1  0
M  END
>  <name>  (974) 
P126060

>  <alias>  (974) 
None

>  <smina_score_min>  (974) 
-9.549

>  <exports>  (974) 
['/opt/xchem-fragalysis-2/maxwin/BulkDock/OUTPUTS/openbind_xx01zvns2b_c2_elabs_1LOUTNY.sdf', '/opt/xchem-fragalysis-2/maxwin/BulkDock/OUTPUTS/openbind_xx01zvns2b_c2_elabs_1LSYIIV.sdf']

>  <tags>  (974) 
syndirella_placed,openbind_xx01zvns2b_c2_elabs,openbind_xx01zvns2b_c2_elabs_scored_6.2plus,syndirella_product,openbind_xx01zvns2b_c2_elabs_scored,openbind_xx01zvns2b_c2_elabs_scored_top80percent,BulkDock Fragalysis export

>  <subsites>  (974) 
1 - Z4590/B/203/1

>  <smiles>  (974) 
Cc1ccc(Cn2ncc3c(C(=O)Nc4ccc5c(c4)CN(CC(F)F)C5)cc(C4CC4)nc32)o1

>  <HIPPO Pose ID>  (974) 
126060

>  <energy_score>  (974) 
-43.85368

>  <inchikey>  (974) 
CAFBACUHRXDJRC-UHFFFAOYSA-N

>  <gnina_score_min>  (974) 
6.473

>  <gnina_score>  (974) 
6.437

>  <ref_mols>  (974) 
Z3559a

>  <HIPPO Compound ID>  (974) 
188239

>  <distance_score>  (974) 
0.469498

>  <rmsd(smina/fragmenstein)>  (974) 
0.23

>  <ref_pdb>  (974) 
Z3559a

>  <inspiration_score>  (974) 
None

$$$$
P126061
     RDKit          3D

 35 40  0  0  0  0  0  0  0  0999 V2000
   -9.6229    5.5864   -3.7855 C   0  0  0  0  0  0  0  0  0  0  0  0
   -8.3676    4.8040   -4.0910 C   0  0  0  0  0  0  0  0  0  0  0  0
   -8.6401    3.3714   -4.5564 C   0  0  0  0  0  0  0  0  0  0  0  0
   -9.6129    3.0702   -5.7196 C   0  0  0  0  0  0  0  0  0  0  0  0
   -9.3143    3.5862   -7.0370 N   0  0  0  0  0  0  0  0  0  0  0  0
   -8.3258    4.6325   -7.1767 C   0  0  0  0  0  0  0  0  0  0  0  0
   -8.1018    4.6995   -8.6409 C   0  0  0  0  0  0  0  0  0  0  0  0
   -7.5302    5.7341   -9.3409 C   0  0  0  0  0  0  0  0  0  0  0  0
   -7.4131    5.5811  -10.7101 C   0  0  0  0  0  0  0  0  0  0  0  0
   -7.8475    4.4088  -11.3574 C   0  0  0  0  0  0  0  0  0  0  0  0
   -7.6632    4.3329  -12.7368 N   0  0  0  0  0  0  0  0  0  0  0  0
   -6.9992    5.3302  -13.7195 C   0  0  0  0  0  0  0  0  0  0  0  0
   -6.4354    6.3342  -13.5149 O   0  0  0  0  0  0  0  0  0  0  0  0
   -7.0803    4.9194  -15.1342 C   0  0  0  0  0  0  0  0  0  0  0  0
   -8.2380    4.3965  -15.7143 C   0  0  0  0  0  0  0  0  0  0  0  0
   -8.2976    4.2142  -17.1015 C   0  0  0  0  0  0  0  0  0  0  0  0
   -9.5872    3.7495  -17.7366 C   0  0  0  0  0  0  0  0  0  0  0  0
   -9.8315    3.9321  -19.2127 C   0  0  0  0  0  0  0  0  0  0  0  0
   -9.5690    2.5614  -18.6645 C   0  0  0  0  0  0  0  0  0  0  0  0
   -7.2616    4.5074  -17.9279 N   0  0  0  0  0  0  0  0  0  0  0  0
   -6.1775    5.0173  -17.3289 C   0  0  0  0  0  0  0  0  0  0  0  0
   -6.0057    5.2341  -15.9776 C   0  0  0  0  0  0  0  0  0  0  0  0
   -4.7043    5.7719  -15.8706 C   0  0  0  0  0  0  0  0  0  0  0  0
   -4.0870    5.8827  -17.0526 N   0  0  0  0  0  0  0  0  0  0  0  0
   -5.0357    5.4680  -17.9354 N   0  0  0  0  0  0  0  0  0  0  0  0
   -4.7827    5.5082  -19.3661 C   0  0  0  0  0  0  0  0  0  0  0  0
   -4.7949    6.8922  -19.9145 C   0  0  0  0  0  0  0  0  0  0  0  0
   -4.6984    8.1613  -19.3762 C   0  0  0  0  0  0  0  0  0  0  0  0
   -4.7292    9.0683  -20.4632 C   0  0  0  0  0  0  0  0  0  0  0  0
   -4.8431    8.3021  -21.6019 C   0  0  0  0  0  0  0  0  0  0  0  0
   -4.9304    8.6168  -23.0414 C   0  0  0  0  0  0  0  0  0  0  0  0
   -4.8790    6.9819  -21.2756 O   0  0  0  0  0  0  0  0  0  0  0  0
   -8.4302    3.3607  -10.6261 C   0  0  0  0  0  0  0  0  0  0  0  0
   -8.5587    3.5269   -9.2518 C   0  0  0  0  0  0  0  0  0  0  0  0
   -9.1541    2.6480   -8.1746 C   0  0  0  0  0  0  0  0  0  0  0  0
  1  2  1  0
  2  3  1  0
  3  4  1  0
  4  5  1  0
  5  6  1  0
  6  7  1  0
  7  8  2  0
  8  9  1  0
  9 10  2  0
 10 11  1  0
 11 12  1  0
 12 13  2  0
 12 14  1  0
 14 15  2  0
 15 16  1  0
 16 17  1  0
 17 18  1  0
 18 19  1  0
 16 20  2  0
 20 21  1  0
 21 22  2  0
 22 23  1  0
 23 24  2  0
 24 25  1  0
 25 26  1  0
 26 27  1  0
 27 28  2  0
 28 29  1  0
 29 30  2  0
 30 31  1  0
 30 32  1  0
 10 33  1  0
 33 34  2  0
 34 35  1  0
 35  5  1  0
 34  7  1  0
 22 14  1  0
 32 27  1  0
 19 17  1  0
 25 21  1  0
M  END
>  <name>  (975) 
P126061

>  <alias>  (975) 
None

>  <smina_score_min>  (975) 
-8.16

>  <exports>  (975) 
['/opt/xchem-fragalysis-2/maxwin/BulkDock/OUTPUTS/openbind_xx01zvns2b_c2_elabs_1LOUTNY.sdf', '/opt/xchem-fragalysis-2/maxwin/BulkDock/OUTPUTS/openbind_xx01zvns2b_c2_elabs_1LSYIIV.sdf']

>  <tags>  (975) 
syndirella_placed,openbind_xx01zvns2b_c2_elabs,openbind_xx01zvns2b_c2_elabs_scored_6.2plus,syndirella_product,openbind_xx01zvns2b_c2_elabs_scored,openbind_xx01zvns2b_c2_elabs_scored_top80percent,BulkDock Fragalysis export

>  <subsites>  (975) 
1 - Z4590/B/203/1

>  <smiles>  (975) 
CCCCN1Cc2ccc(NC(=O)c3cc(C4CC4)nc4c3cnn4Cc3ccc(C)o3)cc2C1

>  <HIPPO Pose ID>  (975) 
126061

>  <energy_score>  (975) 
-57.279178

>  <inchikey>  (975) 
IHAIJRIXDWZFEX-UHFFFAOYSA-N

>  <gnina_score_min>  (975) 
6.334

>  <gnina_score>  (975) 
6.509

>  <ref_mols>  (975) 
Z3559a

>  <HIPPO Compound ID>  (975) 
188240

>  <distance_score>  (975) 
0.613428

>  <rmsd(smina/fragmenstein)>  (975) 
0.84

>  <ref_pdb>  (975) 
Z3559a

>  <inspiration_score>  (975) 
None

$$$$
P126062
     RDKit          3D

 35 40  0  0  0  0  0  0  0  0999 V2000
  -10.2316    1.4926   -6.0181 C   0  0  0  0  0  0  0  0  0  0  0  0
   -9.9045    2.9603   -6.1723 C   0  0  0  0  0  0  0  0  0  0  0  0
   -9.2543    3.5009   -4.8921 C   0  0  0  0  0  0  0  0  0  0  0  0
   -9.0877    3.2322   -7.3538 N   0  0  0  0  0  0  0  0  0  0  0  0
   -8.3750    4.4826   -7.4615 C   0  0  0  0  0  0  0  0  0  0  0  0
   -8.1153    4.6065   -8.9113 C   0  0  0  0  0  0  0  0  0  0  0  0
   -7.5702    5.6728   -9.5849 C   0  0  0  0  0  0  0  0  0  0  0  0
   -7.5066    5.5877  -10.9719 C   0  0  0  0  0  0  0  0  0  0  0  0
   -7.9540    4.4455  -11.6718 C   0  0  0  0  0  0  0  0  0  0  0  0
   -7.8288    4.4333  -13.0622 N   0  0  0  0  0  0  0  0  0  0  0  0
   -7.2984    5.5135  -14.0316 C   0  0  0  0  0  0  0  0  0  0  0  0
   -6.9547    6.6115  -13.8274 O   0  0  0  0  0  0  0  0  0  0  0  0
   -7.1111    5.0347  -15.4154 C   0  0  0  0  0  0  0  0  0  0  0  0
   -8.1277    4.4677  -16.1969 C   0  0  0  0  0  0  0  0  0  0  0  0
   -7.9195    4.2978  -17.5791 C   0  0  0  0  0  0  0  0  0  0  0  0
   -8.9537    3.8036  -18.5565 C   0  0  0  0  0  0  0  0  0  0  0  0
  -10.4127    3.6668  -18.2738 C   0  0  0  0  0  0  0  0  0  0  0  0
   -9.5394    2.4394  -18.3597 C   0  0  0  0  0  0  0  0  0  0  0  0
   -6.7597    4.6275  -18.1875 N   0  0  0  0  0  0  0  0  0  0  0  0
   -5.8250    5.1598  -17.3998 C   0  0  0  0  0  0  0  0  0  0  0  0
   -5.9067    5.3779  -16.0450 C   0  0  0  0  0  0  0  0  0  0  0  0
   -4.6714    5.9775  -15.7197 C   0  0  0  0  0  0  0  0  0  0  0  0
   -3.8746    6.1395  -16.7823 N   0  0  0  0  0  0  0  0  0  0  0  0
   -4.6184    5.6592  -17.8085 N   0  0  0  0  0  0  0  0  0  0  0  0
   -4.2295    5.7601  -19.2104 C   0  0  0  0  0  0  0  0  0  0  0  0
   -2.9183    6.4626  -19.4636 C   0  0  0  0  0  0  0  0  0  0  0  0
   -2.8767    7.8559  -19.6293 C   0  0  0  0  0  0  0  0  0  0  0  0
   -1.6647    8.5065  -19.8675 C   0  0  0  0  0  0  0  0  0  0  0  0
   -0.4821    7.7735  -19.9389 C   0  0  0  0  0  0  0  0  0  0  0  0
   -0.5102    6.3913  -19.7671 C   0  0  0  0  0  0  0  0  0  0  0  0
   -1.7201    5.7374  -19.5286 C   0  0  0  0  0  0  0  0  0  0  0  0
   -8.4943    3.3636  -10.9746 C   0  0  0  0  0  0  0  0  0  0  0  0
   -8.5777    3.4854   -9.5938 C   0  0  0  0  0  0  0  0  0  0  0  0
   -9.2505    2.6277   -8.6075 C   0  0  0  0  0  0  0  0  0  0  0  0
   -9.8891    1.6423   -8.9173 O   0  0  0  0  0  0  0  0  0  0  0  0
  1  2  1  0
  2  3  1  0
  2  4  1  0
  4  5  1  0
  5  6  1  0
  6  7  2  0
  7  8  1  0
  8  9  2  0
  9 10  1  0
 10 11  1  0
 11 12  2  0
 11 13  1  0
 13 14  2  0
 14 15  1  0
 15 16  1  0
 16 17  1  0
 17 18  1  0
 15 19  2  0
 19 20  1  0
 20 21  2  0
 21 22  1  0
 22 23  2  0
 23 24  1  0
 24 25  1  0
 25 26  1  0
 26 27  2  0
 27 28  1  0
 28 29  2  0
 29 30  1  0
 30 31  2  0
  9 32  1  0
 32 33  2  0
 33 34  1  0
 34 35  2  0
 34  4  1  0
 33  6  1  0
 21 13  1  0
 31 26  1  0
 18 16  1  0
 24 20  1  0
M  END
>  <name>  (976) 
P126062

>  <alias>  (976) 
None

>  <smina_score_min>  (976) 
-9.121

>  <exports>  (976) 
['/opt/xchem-fragalysis-2/maxwin/BulkDock/OUTPUTS/openbind_xx01zvns2b_c2_elabs_1LOUTNY.sdf', '/opt/xchem-fragalysis-2/maxwin/BulkDock/OUTPUTS/openbind_xx01zvns2b_c2_elabs_1LSYIIV.sdf']

>  <tags>  (976) 
syndirella_placed,openbind_xx01zvns2b_c2_elabs,openbind_xx01zvns2b_c2_elabs_scored_6.2plus,syndirella_product,openbind_xx01zvns2b_c2_elabs_scored,openbind_xx01zvns2b_c2_elabs_scored_top80percent,BulkDock Fragalysis export

>  <subsites>  (976) 
1 - Z4590/B/203/1

>  <smiles>  (976) 
CC(C)N1Cc2ccc(NC(=O)c3cc(C4CC4)nc4c3cnn4Cc3ccccc3)cc2C1=O

>  <HIPPO Pose ID>  (976) 
126062

>  <energy_score>  (976) 
-24.198988

>  <inchikey>  (976) 
KYUVFVVXTIQKBJ-UHFFFAOYSA-N

>  <gnina_score_min>  (976) 
6.411

>  <gnina_score>  (976) 
6.472

>  <ref_mols>  (976) 
Z3559a

>  <HIPPO Compound ID>  (976) 
188241

>  <distance_score>  (976) 
0.780124

>  <rmsd(smina/fragmenstein)>  (976) 
0.878

>  <ref_pdb>  (976) 
Z3559a

>  <inspiration_score>  (976) 
None

$$$$
P126063
     RDKit          3D

 35 40  0  0  0  0  0  0  0  0999 V2000
   -6.5716    6.3601  -13.4533 O   0  0  0  0  0  0  0  0  0  0  0  0
   -7.0176    5.3038  -13.6798 C   0  0  0  0  0  0  0  0  0  0  0  0
   -7.6142    4.2408  -12.7253 N   0  0  0  0  0  0  0  0  0  0  0  0
   -7.8642    4.2931  -11.3542 C   0  0  0  0  0  0  0  0  0  0  0  0
   -7.5202    5.4449  -10.6243 C   0  0  0  0  0  0  0  0  0  0  0  0
   -7.7294    5.5166   -9.2481 C   0  0  0  0  0  0  0  0  0  0  0  0
   -8.2702    4.4148   -8.6201 C   0  0  0  0  0  0  0  0  0  0  0  0
   -8.6287    3.2690   -9.3352 C   0  0  0  0  0  0  0  0  0  0  0  0
   -8.4402    3.1934  -10.7082 C   0  0  0  0  0  0  0  0  0  0  0  0
   -9.2112    2.2639   -8.3856 C   0  0  0  0  0  0  0  0  0  0  0  0
   -8.8931    2.8126   -7.0617 N   0  0  0  0  0  0  0  0  0  0  0  0
   -9.6850    2.3760   -5.9254 C   0  0  0  0  0  0  0  0  0  0  0  0
  -11.0129    3.0564   -5.6211 C   0  0  0  0  0  0  0  0  0  0  0  0
  -10.7948    4.3192   -5.1585 F   0  0  0  0  0  0  0  0  0  0  0  0
  -11.6624    2.4018   -4.6237 F   0  0  0  0  0  0  0  0  0  0  0  0
   -8.5814    4.2311   -7.1721 C   0  0  0  0  0  0  0  0  0  0  0  0
   -7.0673    4.8926  -15.1008 C   0  0  0  0  0  0  0  0  0  0  0  0
   -8.2251    4.3598  -15.6812 C   0  0  0  0  0  0  0  0  0  0  0  0
   -8.3028    4.2028  -17.0694 C   0  0  0  0  0  0  0  0  0  0  0  0
   -9.5908    3.7370  -17.7059 C   0  0  0  0  0  0  0  0  0  0  0  0
   -9.8397    3.9321  -19.1808 C   0  0  0  0  0  0  0  0  0  0  0  0
   -9.5669    2.5584  -18.6464 C   0  0  0  0  0  0  0  0  0  0  0  0
   -7.2878    4.5377  -17.8971 N   0  0  0  0  0  0  0  0  0  0  0  0
   -6.2013    5.0483  -17.3042 C   0  0  0  0  0  0  0  0  0  0  0  0
   -6.0100    5.2445  -15.9515 C   0  0  0  0  0  0  0  0  0  0  0  0
   -4.7348    5.8425  -15.8665 C   0  0  0  0  0  0  0  0  0  0  0  0
   -4.1809    6.0710  -17.0647 N   0  0  0  0  0  0  0  0  0  0  0  0
   -5.1156    5.6019  -17.9374 N   0  0  0  0  0  0  0  0  0  0  0  0
   -5.1477    6.0887  -19.3104 C   0  0  0  0  0  0  0  0  0  0  0  0
   -4.2503    5.3836  -20.2896 C   0  0  0  0  0  0  0  0  0  0  0  0
   -4.8085    4.7471  -21.4104 C   0  0  0  0  0  0  0  0  0  0  0  0
   -3.9983    4.2655  -22.4371 C   0  0  0  0  0  0  0  0  0  0  0  0
   -2.6180    4.4073  -22.3485 C   0  0  0  0  0  0  0  0  0  0  0  0
   -2.0461    4.9837  -21.2148 C   0  0  0  0  0  0  0  0  0  0  0  0
   -2.8568    5.4717  -20.1894 C   0  0  0  0  0  0  0  0  0  0  0  0
  1  2  2  0
  2  3  1  0
  3  4  1  0
  4  5  2  0
  5  6  1  0
  6  7  2  0
  7  8  1  0
  8  9  2  0
  8 10  1  0
 10 11  1  0
 11 12  1  0
 12 13  1  0
 13 14  1  0
 13 15  1  0
 11 16  1  0
  2 17  1  0
 17 18  2  0
 18 19  1  0
 19 20  1  0
 20 21  1  0
 21 22  1  0
 19 23  2  0
 23 24  1  0
 24 25  2  0
 25 26  1  0
 26 27  2  0
 27 28  1  0
 28 29  1  0
 29 30  1  0
 30 31  2  0
 31 32  1  0
 32 33  2  0
 33 34  1  0
 34 35  2  0
  9  4  1  0
 25 17  1  0
 35 30  1  0
 16  7  1  0
 22 20  1  0
 28 24  1  0
M  END
>  <name>  (977) 
P126063

>  <alias>  (977) 
None

>  <smina_score_min>  (977) 
-10.214

>  <exports>  (977) 
['/opt/xchem-fragalysis-2/maxwin/BulkDock/OUTPUTS/openbind_xx01zvns2b_c2_elabs_1LOUTNY.sdf', '/opt/xchem-fragalysis-2/maxwin/BulkDock/OUTPUTS/openbind_xx01zvns2b_c2_elabs_1LSYIIV.sdf']

>  <tags>  (977) 
syndirella_placed,openbind_xx01zvns2b_c2_elabs,openbind_xx01zvns2b_c2_elabs_scored_6.2plus,syndirella_product,openbind_xx01zvns2b_c2_elabs_scored,openbind_xx01zvns2b_c2_elabs_scored_top80percent,BulkDock Fragalysis export

>  <subsites>  (977) 
1 - Z4590/B/203/1

>  <smiles>  (977) 
O=C(Nc1ccc2c(c1)CN(CC(F)F)C2)c1cc(C2CC2)nc2c1cnn2Cc1ccccc1

>  <HIPPO Pose ID>  (977) 
126063

>  <energy_score>  (977) 
-18.457678

>  <inchikey>  (977) 
ZAAQICAMOOHUMZ-UHFFFAOYSA-N

>  <gnina_score_min>  (977) 
6.532

>  <gnina_score>  (977) 
6.498

>  <ref_mols>  (977) 
Z3559a

>  <HIPPO Compound ID>  (977) 
188242

>  <distance_score>  (977) 
0.447162

>  <rmsd(smina/fragmenstein)>  (977) 
0.431

>  <ref_pdb>  (977) 
Z3559a

>  <inspiration_score>  (977) 
None

$$$$
P126064
     RDKit          3D

 35 40  0  0  0  0  0  0  0  0999 V2000
   -8.5040    4.5569   -2.9701 C   0  0  0  0  0  0  0  0  0  0  0  0
   -8.2935    3.9700   -4.3574 C   0  0  0  0  0  0  0  0  0  0  0  0
   -9.6211    3.7670   -5.0857 C   0  0  0  0  0  0  0  0  0  0  0  0
   -9.5267    2.9538   -6.3887 C   0  0  0  0  0  0  0  0  0  0  0  0
   -8.5574    3.4077   -7.3767 N   0  0  0  0  0  0  0  0  0  0  0  0
   -8.4359    4.8454   -7.6074 C   0  0  0  0  0  0  0  0  0  0  0  0
   -8.1734    4.9903   -9.0679 C   0  0  0  0  0  0  0  0  0  0  0  0
   -7.8570    6.1346   -9.7691 C   0  0  0  0  0  0  0  0  0  0  0  0
   -7.6612    6.0240  -11.1448 C   0  0  0  0  0  0  0  0  0  0  0  0
   -7.7821    4.7863  -11.8067 C   0  0  0  0  0  0  0  0  0  0  0  0
   -7.5399    4.7091  -13.1833 N   0  0  0  0  0  0  0  0  0  0  0  0
   -7.0638    5.6938  -14.1108 C   0  0  0  0  0  0  0  0  0  0  0  0
   -6.8247    6.8596  -13.9630 O   0  0  0  0  0  0  0  0  0  0  0  0
   -6.8144    5.1977  -15.4805 C   0  0  0  0  0  0  0  0  0  0  0  0
   -7.8040    4.5904  -16.2658 C   0  0  0  0  0  0  0  0  0  0  0  0
   -7.5754    4.3735  -17.6372 C   0  0  0  0  0  0  0  0  0  0  0  0
   -8.6208    3.8148  -18.5826 C   0  0  0  0  0  0  0  0  0  0  0  0
  -10.0970    3.8041  -18.2933 C   0  0  0  0  0  0  0  0  0  0  0  0
   -9.3153    2.5197  -18.2672 C   0  0  0  0  0  0  0  0  0  0  0  0
   -6.4032    4.6993  -18.2383 N   0  0  0  0  0  0  0  0  0  0  0  0
   -5.4875    5.2710  -17.4444 C   0  0  0  0  0  0  0  0  0  0  0  0
   -5.6045    5.5391  -16.0965 C   0  0  0  0  0  0  0  0  0  0  0  0
   -4.3803    6.1524  -15.7521 C   0  0  0  0  0  0  0  0  0  0  0  0
   -3.5302    6.2338  -16.7834 N   0  0  0  0  0  0  0  0  0  0  0  0
   -4.2550    5.7335  -17.8172 N   0  0  0  0  0  0  0  0  0  0  0  0
   -3.6836    5.6565  -19.1491 C   0  0  0  0  0  0  0  0  0  0  0  0
   -3.8773    6.9260  -19.9409 C   0  0  0  0  0  0  0  0  0  0  0  0
   -3.1488    8.0840  -19.6315 C   0  0  0  0  0  0  0  0  0  0  0  0
   -3.3010    9.2429  -20.3946 C   0  0  0  0  0  0  0  0  0  0  0  0
   -4.1770    9.2557  -21.4782 C   0  0  0  0  0  0  0  0  0  0  0  0
   -4.9108    8.1137  -21.7913 C   0  0  0  0  0  0  0  0  0  0  0  0
   -4.7720    6.9584  -21.0201 C   0  0  0  0  0  0  0  0  0  0  0  0
   -8.1249    3.6385  -11.0812 C   0  0  0  0  0  0  0  0  0  0  0  0
   -8.3109    3.7600   -9.7074 C   0  0  0  0  0  0  0  0  0  0  0  0
   -8.7097    2.7290   -8.6918 C   0  0  0  0  0  0  0  0  0  0  0  0
  1  2  1  0
  2  3  1  0
  3  4  1  0
  4  5  1  0
  5  6  1  0
  6  7  1  0
  7  8  2  0
  8  9  1  0
  9 10  2  0
 10 11  1  0
 11 12  1  0
 12 13  2  0
 12 14  1  0
 14 15  2  0
 15 16  1  0
 16 17  1  0
 17 18  1  0
 18 19  1  0
 16 20  2  0
 20 21  1  0
 21 22  2  0
 22 23  1  0
 23 24  2  0
 24 25  1  0
 25 26  1  0
 26 27  1  0
 27 28  2  0
 28 29  1  0
 29 30  2  0
 30 31  1  0
 31 32  2  0
 10 33  1  0
 33 34  2  0
 34 35  1  0
 35  5  1  0
 34  7  1  0
 22 14  1  0
 32 27  1  0
 19 17  1  0
 25 21  1  0
M  END
>  <name>  (978) 
P126064

>  <alias>  (978) 
None

>  <smina_score_min>  (978) 
-9.2

>  <exports>  (978) 
['/opt/xchem-fragalysis-2/maxwin/BulkDock/OUTPUTS/openbind_xx01zvns2b_c2_elabs_1LOUTNY.sdf', '/opt/xchem-fragalysis-2/maxwin/BulkDock/OUTPUTS/openbind_xx01zvns2b_c2_elabs_1LSYIIV.sdf']

>  <tags>  (978) 
syndirella_placed,openbind_xx01zvns2b_c2_elabs,openbind_xx01zvns2b_c2_elabs_scored_6.2plus,syndirella_product,openbind_xx01zvns2b_c2_elabs_scored,openbind_xx01zvns2b_c2_elabs_scored_top80percent,BulkDock Fragalysis export

>  <subsites>  (978) 
1 - Z4590/B/203/1

>  <smiles>  (978) 
CCCCN1Cc2ccc(NC(=O)c3cc(C4CC4)nc4c3cnn4Cc3ccccc3)cc2C1

>  <HIPPO Pose ID>  (978) 
126064

>  <energy_score>  (978) 
-41.114953

>  <inchikey>  (978) 
DEFVJYHFZGXIKJ-UHFFFAOYSA-N

>  <gnina_score_min>  (978) 
6.69

>  <gnina_score>  (978) 
6.463

>  <ref_mols>  (978) 
Z3559a

>  <HIPPO Compound ID>  (978) 
188243

>  <distance_score>  (978) 
1.059433

>  <rmsd(smina/fragmenstein)>  (978) 
1.184

>  <ref_pdb>  (978) 
Z3559a

>  <inspiration_score>  (978) 
None

$$$$
P126065
     RDKit          3D

 35 40  0  0  0  0  0  0  0  0999 V2000
  -10.9782    3.2788   -5.5639 C   0  0  0  0  0  0  0  0  0  0  0  0
   -9.5380    2.8263   -5.7207 C   0  0  0  0  0  0  0  0  0  0  0  0
   -8.7385    3.3752   -4.5322 C   0  0  0  0  0  0  0  0  0  0  0  0
   -8.9885    3.2611   -6.9980 N   0  0  0  0  0  0  0  0  0  0  0  0
   -8.3311    4.5338   -7.1381 C   0  0  0  0  0  0  0  0  0  0  0  0
   -8.1173    4.6366   -8.5968 C   0  0  0  0  0  0  0  0  0  0  0  0
   -7.5536    5.6841   -9.2851 C   0  0  0  0  0  0  0  0  0  0  0  0
   -7.4758    5.5693  -10.6653 C   0  0  0  0  0  0  0  0  0  0  0  0
   -7.9502    4.4258  -11.3408 C   0  0  0  0  0  0  0  0  0  0  0  0
   -7.8282    4.3900  -12.7271 N   0  0  0  0  0  0  0  0  0  0  0  0
   -7.2308    5.4256  -13.7109 C   0  0  0  0  0  0  0  0  0  0  0  0
   -6.8185    6.5026  -13.5192 O   0  0  0  0  0  0  0  0  0  0  0  0
   -7.2070    4.9648  -15.1081 C   0  0  0  0  0  0  0  0  0  0  0  0
   -8.3253    4.4183  -15.7301 C   0  0  0  0  0  0  0  0  0  0  0  0
   -8.3055    4.2042  -17.1083 C   0  0  0  0  0  0  0  0  0  0  0  0
   -9.5690    3.7409  -17.7940 C   0  0  0  0  0  0  0  0  0  0  0  0
   -9.5317    2.5272  -18.6843 C   0  0  0  0  0  0  0  0  0  0  0  0
   -9.7412    3.8867  -19.2823 C   0  0  0  0  0  0  0  0  0  0  0  0
   -7.2205    4.4722  -17.8759 N   0  0  0  0  0  0  0  0  0  0  0  0
   -6.1538    4.9984  -17.2450 C   0  0  0  0  0  0  0  0  0  0  0  0
   -6.0822    5.2612  -15.8892 C   0  0  0  0  0  0  0  0  0  0  0  0
   -4.8087    5.8205  -15.6976 C   0  0  0  0  0  0  0  0  0  0  0  0
   -4.0986    5.8952  -16.8220 N   0  0  0  0  0  0  0  0  0  0  0  0
   -4.9370    5.4076  -17.7908 N   0  0  0  0  0  0  0  0  0  0  0  0
   -4.4898    5.3852  -19.1477 C   0  0  0  0  0  0  0  0  0  0  0  0
   -5.3114    4.9434  -20.1915 C   0  0  0  0  0  0  0  0  0  0  0  0
   -4.8280    4.9107  -21.5043 C   0  0  0  0  0  0  0  0  0  0  0  0
   -3.5311    5.3218  -21.7762 C   0  0  0  0  0  0  0  0  0  0  0  0
   -3.0755    5.2875  -23.0350 F   0  0  0  0  0  0  0  0  0  0  0  0
   -2.7018    5.7720  -20.7587 C   0  0  0  0  0  0  0  0  0  0  0  0
   -3.1784    5.8060  -19.4454 C   0  0  0  0  0  0  0  0  0  0  0  0
   -8.5247    3.3660  -10.6308 C   0  0  0  0  0  0  0  0  0  0  0  0
   -8.5985    3.5036   -9.2529 C   0  0  0  0  0  0  0  0  0  0  0  0
   -9.2090    2.6363   -8.2260 C   0  0  0  0  0  0  0  0  0  0  0  0
   -9.8428    1.6280   -8.4642 O   0  0  0  0  0  0  0  0  0  0  0  0
  1  2  1  0
  2  3  1  0
  2  4  1  0
  4  5  1  0
  5  6  1  0
  6  7  2  0
  7  8  1  0
  8  9  2  0
  9 10  1  0
 10 11  1  0
 11 12  2  0
 11 13  1  0
 13 14  2  0
 14 15  1  0
 15 16  1  0
 16 17  1  0
 17 18  1  0
 15 19  2  0
 19 20  1  0
 20 21  2  0
 21 22  1  0
 22 23  2  0
 23 24  1  0
 24 25  1  0
 25 26  2  0
 26 27  1  0
 27 28  2  0
 28 29  1  0
 28 30  1  0
 30 31  2  0
  9 32  1  0
 32 33  2  0
 33 34  1  0
 34 35  2  0
 34  4  1  0
 33  6  1  0
 21 13  1  0
 31 25  1  0
 18 16  1  0
 24 20  1  0
M  END
>  <name>  (979) 
P126065

>  <alias>  (979) 
None

>  <smina_score_min>  (979) 
-10.114

>  <exports>  (979) 
['/opt/xchem-fragalysis-2/maxwin/BulkDock/OUTPUTS/openbind_xx01zvns2b_c2_elabs_1LOUTNY.sdf', '/opt/xchem-fragalysis-2/maxwin/BulkDock/OUTPUTS/openbind_xx01zvns2b_c2_elabs_1LSYIIV.sdf']

>  <tags>  (979) 
syndirella_placed,openbind_xx01zvns2b_c2_elabs,openbind_xx01zvns2b_c2_elabs_scored_6.2plus,syndirella_product,openbind_xx01zvns2b_c2_elabs_scored,openbind_xx01zvns2b_c2_elabs_scored_top80percent,BulkDock Fragalysis export

>  <subsites>  (979) 
1 - Z4590/B/203/1

>  <smiles>  (979) 
CC(C)N1Cc2ccc(NC(=O)c3cc(C4CC4)nc4c3cnn4-c3ccc(F)cc3)cc2C1=O

>  <HIPPO Pose ID>  (979) 
126065

>  <energy_score>  (979) 
-31.54867

>  <inchikey>  (979) 
MREVXQNHGJSFJF-UHFFFAOYSA-N

>  <gnina_score_min>  (979) 
6.392

>  <gnina_score>  (979) 
6.454

>  <ref_mols>  (979) 
Z3559a

>  <HIPPO Compound ID>  (979) 
188244

>  <distance_score>  (979) 
0.556337

>  <rmsd(smina/fragmenstein)>  (979) 
0.705

>  <ref_pdb>  (979) 
Z3559a

>  <inspiration_score>  (979) 
None

$$$$
P126066
     RDKit          3D

 35 40  0  0  0  0  0  0  0  0999 V2000
   -6.8020    6.5297  -13.3879 O   0  0  0  0  0  0  0  0  0  0  0  0
   -7.2322    5.4698  -13.6244 C   0  0  0  0  0  0  0  0  0  0  0  0
   -7.8724    4.4169  -12.6908 N   0  0  0  0  0  0  0  0  0  0  0  0
   -8.0253    4.4093  -11.3062 C   0  0  0  0  0  0  0  0  0  0  0  0
   -7.6884    5.5548  -10.5637 C   0  0  0  0  0  0  0  0  0  0  0  0
   -7.8283    5.5810   -9.1785 C   0  0  0  0  0  0  0  0  0  0  0  0
   -8.3070    4.4465   -8.5582 C   0  0  0  0  0  0  0  0  0  0  0  0
   -8.6555    3.3056   -9.2851 C   0  0  0  0  0  0  0  0  0  0  0  0
   -8.5184    3.2676  -10.6651 C   0  0  0  0  0  0  0  0  0  0  0  0
   -9.1957    2.2714   -8.3429 C   0  0  0  0  0  0  0  0  0  0  0  0
   -8.8836    2.8105   -7.0126 N   0  0  0  0  0  0  0  0  0  0  0  0
   -9.6954    2.3695   -5.8906 C   0  0  0  0  0  0  0  0  0  0  0  0
  -11.0301    3.0448   -5.6062 C   0  0  0  0  0  0  0  0  0  0  0  0
  -10.8211    4.2996   -5.1183 F   0  0  0  0  0  0  0  0  0  0  0  0
  -11.7017    2.3750   -4.6336 F   0  0  0  0  0  0  0  0  0  0  0  0
   -8.5815    4.2327   -7.1079 C   0  0  0  0  0  0  0  0  0  0  0  0
   -7.1975    5.0308  -15.0328 C   0  0  0  0  0  0  0  0  0  0  0  0
   -8.3107    4.4816  -15.6671 C   0  0  0  0  0  0  0  0  0  0  0  0
   -8.2767    4.2463  -17.0427 C   0  0  0  0  0  0  0  0  0  0  0  0
   -9.5329    3.7649  -17.7365 C   0  0  0  0  0  0  0  0  0  0  0  0
   -9.4714    2.5752  -18.6598 C   0  0  0  0  0  0  0  0  0  0  0  0
   -9.7161    3.9434  -19.2213 C   0  0  0  0  0  0  0  0  0  0  0  0
   -7.1817    4.5025  -17.8003 N   0  0  0  0  0  0  0  0  0  0  0  0
   -6.1206    5.0318  -17.1578 C   0  0  0  0  0  0  0  0  0  0  0  0
   -6.0623    5.3084  -15.8025 C   0  0  0  0  0  0  0  0  0  0  0  0
   -4.7790    5.8390  -15.5974 C   0  0  0  0  0  0  0  0  0  0  0  0
   -4.0483    5.8738  -16.7103 N   0  0  0  0  0  0  0  0  0  0  0  0
   -4.8823    5.3992  -17.6856 N   0  0  0  0  0  0  0  0  0  0  0  0
   -4.4112    5.3267  -19.0313 C   0  0  0  0  0  0  0  0  0  0  0  0
   -5.2702    5.0421  -20.0994 C   0  0  0  0  0  0  0  0  0  0  0  0
   -4.7643    4.9358  -21.3995 C   0  0  0  0  0  0  0  0  0  0  0  0
   -3.4046    5.0992  -21.6305 C   0  0  0  0  0  0  0  0  0  0  0  0
   -2.9280    4.9702  -22.8755 F   0  0  0  0  0  0  0  0  0  0  0  0
   -2.5365    5.3880  -20.5870 C   0  0  0  0  0  0  0  0  0  0  0  0
   -3.0393    5.5165  -19.2891 C   0  0  0  0  0  0  0  0  0  0  0  0
  1  2  2  0
  2  3  1  0
  3  4  1  0
  4  5  2  0
  5  6  1  0
  6  7  2  0
  7  8  1  0
  8  9  2  0
  8 10  1  0
 10 11  1  0
 11 12  1  0
 12 13  1  0
 13 14  1  0
 13 15  1  0
 11 16  1  0
  2 17  1  0
 17 18  2  0
 18 19  1  0
 19 20  1  0
 20 21  1  0
 21 22  1  0
 19 23  2  0
 23 24  1  0
 24 25  2  0
 25 26  1  0
 26 27  2  0
 27 28  1  0
 28 29  1  0
 29 30  2  0
 30 31  1  0
 31 32  2  0
 32 33  1  0
 32 34  1  0
 34 35  2  0
  9  4  1  0
 25 17  1  0
 35 29  1  0
 16  7  1  0
 22 20  1  0
 28 24  1  0
M  END
>  <name>  (980) 
P126066

>  <alias>  (980) 
None

>  <smina_score_min>  (980) 
-10.2

>  <exports>  (980) 
['/opt/xchem-fragalysis-2/maxwin/BulkDock/OUTPUTS/openbind_xx01zvns2b_c2_elabs_1LOUTNY.sdf', '/opt/xchem-fragalysis-2/maxwin/BulkDock/OUTPUTS/openbind_xx01zvns2b_c2_elabs_1LSYIIV.sdf']

>  <tags>  (980) 
syndirella_placed,openbind_xx01zvns2b_c2_elabs,openbind_xx01zvns2b_c2_elabs_scored_6.2plus,syndirella_product,openbind_xx01zvns2b_c2_elabs_scored,openbind_xx01zvns2b_c2_elabs_scored_top80percent,BulkDock Fragalysis export

>  <subsites>  (980) 
1 - Z4590/B/203/1

>  <smiles>  (980) 
O=C(Nc1ccc2c(c1)CN(CC(F)F)C2)c1cc(C2CC2)nc2c1cnn2-c1ccc(F)cc1

>  <HIPPO Pose ID>  (980) 
126066

>  <energy_score>  (980) 
-47.045086

>  <inchikey>  (980) 
GELXSMOBOJXRJG-UHFFFAOYSA-N

>  <gnina_score_min>  (980) 
6.579

>  <gnina_score>  (980) 
6.539

>  <ref_mols>  (980) 
Z3559a

>  <HIPPO Compound ID>  (980) 
188245

>  <distance_score>  (980) 
0.431253

>  <rmsd(smina/fragmenstein)>  (980) 
0.559

>  <ref_pdb>  (980) 
Z3559a

>  <inspiration_score>  (980) 
None

$$$$
P126067
     RDKit          3D

 35 40  0  0  0  0  0  0  0  0999 V2000
   -8.7736    3.9022   -3.9797 C   0  0  0  0  0  0  0  0  0  0  0  0
  -10.1271    3.9052   -4.6664 C   0  0  0  0  0  0  0  0  0  0  0  0
  -10.4995    2.6014   -5.3736 C   0  0  0  0  0  0  0  0  0  0  0  0
   -9.5355    2.0513   -6.4325 C   0  0  0  0  0  0  0  0  0  0  0  0
   -9.4926    2.8708   -7.6285 N   0  0  0  0  0  0  0  0  0  0  0  0
   -8.5866    4.0258   -7.5633 C   0  0  0  0  0  0  0  0  0  0  0  0
   -8.2719    4.3008   -8.9955 C   0  0  0  0  0  0  0  0  0  0  0  0
   -7.7918    5.4542   -9.5754 C   0  0  0  0  0  0  0  0  0  0  0  0
   -7.6401    5.4651  -10.9611 C   0  0  0  0  0  0  0  0  0  0  0  0
   -7.9533    4.3338  -11.7391 C   0  0  0  0  0  0  0  0  0  0  0  0
   -7.7879    4.3727  -13.1223 N   0  0  0  0  0  0  0  0  0  0  0  0
   -7.3084    5.5142  -14.0425 C   0  0  0  0  0  0  0  0  0  0  0  0
   -7.0497    6.6259  -13.7975 O   0  0  0  0  0  0  0  0  0  0  0  0
   -7.1204    5.0780  -15.4379 C   0  0  0  0  0  0  0  0  0  0  0  0
   -8.1472    4.5307  -16.2162 C   0  0  0  0  0  0  0  0  0  0  0  0
   -7.9318    4.3337  -17.5866 C   0  0  0  0  0  0  0  0  0  0  0  0
   -8.9664    3.8446  -18.5648 C   0  0  0  0  0  0  0  0  0  0  0  0
  -10.4233    3.6853  -18.2818 C   0  0  0  0  0  0  0  0  0  0  0  0
   -9.5349    2.4705  -18.3782 C   0  0  0  0  0  0  0  0  0  0  0  0
   -6.7573    4.6205  -18.1787 N   0  0  0  0  0  0  0  0  0  0  0  0
   -5.7946    5.1357  -17.4047 C   0  0  0  0  0  0  0  0  0  0  0  0
   -5.8969    5.3747  -16.0508 C   0  0  0  0  0  0  0  0  0  0  0  0
   -4.6440    5.8981  -15.6922 C   0  0  0  0  0  0  0  0  0  0  0  0
   -3.7895    5.9526  -16.7165 N   0  0  0  0  0  0  0  0  0  0  0  0
   -4.5157    5.5121  -17.7890 N   0  0  0  0  0  0  0  0  0  0  0  0
   -3.9270    5.4636  -19.0891 C   0  0  0  0  0  0  0  0  0  0  0  0
   -2.5321    5.5933  -19.2127 C   0  0  0  0  0  0  0  0  0  0  0  0
   -1.9202    5.4731  -20.4639 C   0  0  0  0  0  0  0  0  0  0  0  0
   -2.6988    5.2497  -21.5920 C   0  0  0  0  0  0  0  0  0  0  0  0
   -2.1125    5.1233  -22.7899 F   0  0  0  0  0  0  0  0  0  0  0  0
   -4.0804    5.1503  -21.4945 C   0  0  0  0  0  0  0  0  0  0  0  0
   -4.6977    5.2553  -20.2443 C   0  0  0  0  0  0  0  0  0  0  0  0
   -8.4179    3.1652  -11.1305 C   0  0  0  0  0  0  0  0  0  0  0  0
   -8.5798    3.1717   -9.7557 C   0  0  0  0  0  0  0  0  0  0  0  0
   -9.1001    2.1098   -8.8367 C   0  0  0  0  0  0  0  0  0  0  0  0
  1  2  1  0
  2  3  1  0
  3  4  1  0
  4  5  1  0
  5  6  1  0
  6  7  1  0
  7  8  2  0
  8  9  1  0
  9 10  2  0
 10 11  1  0
 11 12  1  0
 12 13  2  0
 12 14  1  0
 14 15  2  0
 15 16  1  0
 16 17  1  0
 17 18  1  0
 18 19  1  0
 16 20  2  0
 20 21  1  0
 21 22  2  0
 22 23  1  0
 23 24  2  0
 24 25  1  0
 25 26  1  0
 26 27  2  0
 27 28  1  0
 28 29  2  0
 29 30  1  0
 29 31  1  0
 31 32  2  0
 10 33  1  0
 33 34  2  0
 34 35  1  0
 35  5  1  0
 34  7  1  0
 22 14  1  0
 32 26  1  0
 19 17  1  0
 25 21  1  0
M  END
>  <name>  (981) 
P126067

>  <alias>  (981) 
None

>  <smina_score_min>  (981) 
-9.75

>  <exports>  (981) 
['/opt/xchem-fragalysis-2/maxwin/BulkDock/OUTPUTS/openbind_xx01zvns2b_c2_elabs_1LOUTNY.sdf', '/opt/xchem-fragalysis-2/maxwin/BulkDock/OUTPUTS/openbind_xx01zvns2b_c2_elabs_1LSYIIV.sdf']

>  <tags>  (981) 
syndirella_placed,openbind_xx01zvns2b_c2_elabs,openbind_xx01zvns2b_c2_elabs_scored_6.2plus,syndirella_product,openbind_xx01zvns2b_c2_elabs_scored,openbind_xx01zvns2b_c2_elabs_scored_top80percent,BulkDock Fragalysis export

>  <subsites>  (981) 
1 - Z4590/B/203/1

>  <smiles>  (981) 
CCCCN1Cc2ccc(NC(=O)c3cc(C4CC4)nc4c3cnn4-c3ccc(F)cc3)cc2C1

>  <HIPPO Pose ID>  (981) 
126067

>  <energy_score>  (981) 
-38.769396

>  <inchikey>  (981) 
XKTQAPSXRKKNAE-UHFFFAOYSA-N

>  <gnina_score_min>  (981) 
6.653

>  <gnina_score>  (981) 
6.752

>  <ref_mols>  (981) 
Z3559a

>  <HIPPO Compound ID>  (981) 
188246

>  <distance_score>  (981) 
0.74087

>  <rmsd(smina/fragmenstein)>  (981) 
0.616

>  <ref_pdb>  (981) 
Z3559a

>  <inspiration_score>  (981) 
None

$$$$
P126351
     RDKit          3D

 28 31  0  0  0  0  0  0  0  0999 V2000
   -9.9119    4.2654  -17.4768 C   0  0  0  0  0  0  0  0  0  0  0  0
   -8.7222    4.4109  -17.4176 C   0  0  0  0  0  0  0  0  0  0  0  0
   -7.3141    4.6561  -17.4477 C   0  0  0  0  0  0  0  0  0  0  0  0
   -6.6936    4.6939  -18.6956 C   0  0  0  0  0  0  0  0  0  0  0  0
   -5.3584    4.8348  -18.8972 N   0  0  0  0  0  0  0  0  0  0  0  0
   -4.6034    4.8936  -17.7906 C   0  0  0  0  0  0  0  0  0  0  0  0
   -2.9185    5.0120  -18.0977 Cl  0  0  0  0  0  0  0  0  0  0  0  0
   -5.1097    4.8495  -16.5069 C   0  0  0  0  0  0  0  0  0  0  0  0
   -4.2957    4.9216  -15.4392 F   0  0  0  0  0  0  0  0  0  0  0  0
   -6.4920    4.7726  -16.3240 C   0  0  0  0  0  0  0  0  0  0  0  0
   -6.9262    4.8219  -14.9968 N   0  0  0  0  0  0  0  0  0  0  0  0
   -8.2266    5.3910  -14.3871 C   0  0  0  0  0  0  0  0  0  0  0  0
   -9.1707    5.8372  -14.9035 O   0  0  0  0  0  0  0  0  0  0  0  0
   -8.0831    5.3323  -12.9129 C   0  0  0  0  0  0  0  0  0  0  0  0
   -7.9615    6.5620  -12.1406 C   0  0  0  0  0  0  0  0  0  0  0  0
   -7.9274    6.4776  -10.8009 C   0  0  0  0  0  0  0  0  0  0  0  0
   -8.0203    5.2238  -10.2054 N   0  0  0  0  0  0  0  0  0  0  0  0
   -8.1142    4.9084   -8.8810 C   0  0  0  0  0  0  0  0  0  0  0  0
   -8.3817    3.5592   -8.8698 C   0  0  0  0  0  0  0  0  0  0  0  0
   -8.9668    2.8110   -7.7886 C   0  0  0  0  0  0  0  0  0  0  0  0
   -9.2613    1.4464   -7.8034 C   0  0  0  0  0  0  0  0  0  0  0  0
  -10.0442    1.0947   -6.7817 N   0  0  0  0  0  0  0  0  0  0  0  0
  -10.2248    2.2486   -6.1270 N   0  0  0  0  0  0  0  0  0  0  0  0
  -11.1500    2.2898   -5.0360 C   0  0  0  0  0  0  0  0  0  0  0  0
   -9.5253    3.2975   -6.6325 C   0  0  0  0  0  0  0  0  0  0  0  0
   -8.2757    3.0084  -10.1178 N   0  0  0  0  0  0  0  0  0  0  0  0
   -8.1204    4.0340  -10.9179 C   0  0  0  0  0  0  0  0  0  0  0  0
   -8.1376    4.1175  -12.3330 C   0  0  0  0  0  0  0  0  0  0  0  0
  1  2  3  0
  2  3  1  0
  3  4  2  0
  4  5  1  0
  5  6  2  0
  6  7  1  0
  6  8  1  0
  8  9  1  0
  8 10  2  0
 10 11  1  0
 11 12  1  0
 12 13  2  0
 12 14  1  0
 14 15  1  0
 15 16  2  0
 16 17  1  0
 17 18  1  0
 18 19  2  0
 19 20  1  0
 20 21  1  0
 21 22  2  0
 22 23  1  0
 23 24  1  0
 23 25  1  0
 19 26  1  0
 26 27  2  0
 27 28  1  0
 10  3  1  0
 28 14  2  0
 27 17  1  0
 25 20  2  0
M  END
>  <name>  (982) 
P126351

>  <alias>  (982) 
None

>  <smina_score_min>  (982) 
-8.406

>  <exports>  (982) 
['/opt/xchem-fragalysis-2/maxwin/BulkDock/OUTPUTS/openbind_xx01zvns2b_c2_elabs_1LOUTNY.sdf', '/opt/xchem-fragalysis-2/maxwin/BulkDock/OUTPUTS/openbind_xx01zvns2b_c2_elabs_1LSYIIV.sdf']

>  <tags>  (982) 
syndirella_placed,openbind_xx01zvns2b_c2_elabs,openbind_xx01zvns2b_c2_elabs_scored_6.2plus,syndirella_product,openbind_xx01zvns2b_c2_elabs_scored,openbind_xx01zvns2b_c2_elabs_scored_top80percent,BulkDock Fragalysis export

>  <subsites>  (982) 
1 - Z4590/B/203/1

>  <smiles>  (982) 
C#Cc1cnc(Cl)c(F)c1NC(=O)c1ccn2cc(-c3cnn(C)c3)nc2c1

>  <HIPPO Pose ID>  (982) 
126351

>  <energy_score>  (982) 
-13.776458

>  <inchikey>  (982) 
UJORFAKONUGMNK-UHFFFAOYSA-N

>  <gnina_score_min>  (982) 
6.234

>  <gnina_score>  (982) 
6.215

>  <ref_mols>  (982) 
Z1495a

>  <HIPPO Compound ID>  (982) 
188638

>  <distance_score>  (982) 
0.650154

>  <rmsd(smina/fragmenstein)>  (982) 
0.289

>  <ref_pdb>  (982) 
Z1495a

>  <inspiration_score>  (982) 
None

$$$$
P126368
     RDKit          3D

 28 33  0  0  0  0  0  0  0  0999 V2000
   -9.1406    6.3399  -14.1991 O   0  0  0  0  0  0  0  0  0  0  0  0
   -8.1711    5.8247  -13.8058 C   0  0  0  0  0  0  0  0  0  0  0  0
   -6.9552    5.2605  -14.5730 N   0  0  0  0  0  0  0  0  0  0  0  0
   -6.7304    5.1318  -15.9364 C   0  0  0  0  0  0  0  0  0  0  0  0
   -5.4395    5.2983  -16.4615 C   0  0  0  0  0  0  0  0  0  0  0  0
   -5.2791    5.1601  -17.8510 C   0  0  0  0  0  0  0  0  0  0  0  0
   -6.2902    4.8480  -18.6941 N   0  0  0  0  0  0  0  0  0  0  0  0
   -7.4979    4.6585  -18.1396 C   0  0  0  0  0  0  0  0  0  0  0  0
   -7.7626    4.7864  -16.7878 C   0  0  0  0  0  0  0  0  0  0  0  0
   -9.1349    4.2737  -16.4834 C   0  0  0  0  0  0  0  0  0  0  0  0
   -9.8106    4.3154  -17.8458 C   0  0  0  0  0  0  0  0  0  0  0  0
   -8.6935    4.0938  -18.8520 C   0  0  0  0  0  0  0  0  0  0  0  0
   -3.9515    5.4067  -18.5139 C   0  0  0  0  0  0  0  0  0  0  0  0
   -2.7731    5.2433  -17.5630 C   0  0  0  0  0  0  0  0  0  0  0  0
   -3.0111    6.0679  -16.3070 C   0  0  0  0  0  0  0  0  0  0  0  0
   -4.2571    5.5816  -15.5679 C   0  0  0  0  0  0  0  0  0  0  0  0
   -7.9569    5.5753  -12.3700 C   0  0  0  0  0  0  0  0  0  0  0  0
   -7.6757    6.6806  -11.4704 C   0  0  0  0  0  0  0  0  0  0  0  0
   -7.7359    6.4523  -10.1499 C   0  0  0  0  0  0  0  0  0  0  0  0
   -8.0660    5.1760   -9.7044 N   0  0  0  0  0  0  0  0  0  0  0  0
   -8.3126    4.7549   -8.4316 C   0  0  0  0  0  0  0  0  0  0  0  0
   -8.7659    3.4676   -8.5812 C   0  0  0  0  0  0  0  0  0  0  0  0
   -9.4515    2.6742   -7.4685 C   0  0  0  0  0  0  0  0  0  0  0  0
   -8.8819    2.6939   -6.0804 C   0  0  0  0  0  0  0  0  0  0  0  0
   -8.8024    1.4565   -6.9273 C   0  0  0  0  0  0  0  0  0  0  0  0
   -8.6860    3.0373   -9.8712 N   0  0  0  0  0  0  0  0  0  0  0  0
   -8.2980    4.0923  -10.5455 C   0  0  0  0  0  0  0  0  0  0  0  0
   -8.2176    4.3242  -11.9419 C   0  0  0  0  0  0  0  0  0  0  0  0
  1  2  2  0
  2  3  1  0
  3  4  1  0
  4  5  2  0
  5  6  1  0
  6  7  2  0
  7  8  1  0
  8  9  2  0
  9 10  1  0
 10 11  1  0
 11 12  1  0
  6 13  1  0
 13 14  1  0
 14 15  1  0
 15 16  1  0
  2 17  1  0
 17 18  1  0
 18 19  2  0
 19 20  1  0
 20 21  1  0
 21 22  2  0
 22 23  1  0
 23 24  1  0
 24 25  1  0
 22 26  1  0
 26 27  2  0
 27 28  1  0
  9  4  1  0
 28 17  2  0
 16  5  1  0
 27 20  1  0
 12  8  1  0
 25 23  1  0
M  END
>  <name>  (983) 
P126368

>  <alias>  (983) 
None

>  <smina_score_min>  (983) 
-8.469

>  <exports>  (983) 
['/opt/xchem-fragalysis-2/maxwin/BulkDock/OUTPUTS/openbind_xx01zvns2b_c2_elabs_1LOUTNY.sdf', '/opt/xchem-fragalysis-2/maxwin/BulkDock/OUTPUTS/openbind_xx01zvns2b_c2_elabs_1LSYIIV.sdf']

>  <tags>  (983) 
syndirella_placed,openbind_xx01zvns2b_c2_elabs,openbind_xx01zvns2b_c2_elabs_scored_6.2plus,syndirella_product,openbind_xx01zvns2b_c2_elabs_scored,openbind_xx01zvns2b_c2_elabs_scored_top80percent,BulkDock Fragalysis export

>  <subsites>  (983) 
1 - Z4590/B/203/1

>  <smiles>  (983) 
O=C(Nc1c2c(nc3c1CCC3)CCCC2)c1ccn2cc(C3CC3)nc2c1

>  <HIPPO Pose ID>  (983) 
126368

>  <energy_score>  (983) 
-22.571333

>  <inchikey>  (983) 
XHGUIIYSPVTXHE-UHFFFAOYSA-N

>  <gnina_score_min>  (983) 
6.214

>  <gnina_score>  (983) 
6.168

>  <ref_mols>  (983) 
Z1495a

>  <HIPPO Compound ID>  (983) 
188669

>  <distance_score>  (983) 
0.635482

>  <rmsd(smina/fragmenstein)>  (983) 
1.07

>  <ref_pdb>  (983) 
Z1495a

>  <inspiration_score>  (983) 
None

$$$$
P126369
     RDKit          3D

 28 32  0  0  0  0  0  0  0  0999 V2000
   -9.1478    2.3761   -6.2686 O   0  0  0  0  0  0  0  0  0  0  0  0
   -8.9171    2.0257   -7.4221 C   0  0  0  0  0  0  0  0  0  0  0  0
   -8.5869    2.9687   -8.4662 C   0  0  0  0  0  0  0  0  0  0  0  0
   -8.3764    4.3253   -8.3069 C   0  0  0  0  0  0  0  0  0  0  0  0
   -8.2216    4.8210   -9.5686 N   0  0  0  0  0  0  0  0  0  0  0  0
   -8.0368    6.1356   -9.9845 C   0  0  0  0  0  0  0  0  0  0  0  0
   -7.9699    6.4025  -11.3010 C   0  0  0  0  0  0  0  0  0  0  0  0
   -7.6981    8.1332  -11.9349 Br  0  0  0  0  0  0  0  0  0  0  0  0
   -8.1080    5.2860  -12.2270 C   0  0  0  0  0  0  0  0  0  0  0  0
   -8.2798    5.4672  -13.6780 C   0  0  0  0  0  0  0  0  0  0  0  0
   -9.2819    5.8508  -14.1384 O   0  0  0  0  0  0  0  0  0  0  0  0
   -6.9829    4.9696  -14.3666 N   0  0  0  0  0  0  0  0  0  0  0  0
   -6.6322    4.9327  -15.7109 C   0  0  0  0  0  0  0  0  0  0  0  0
   -5.2984    5.0834  -16.1147 C   0  0  0  0  0  0  0  0  0  0  0  0
   -5.0130    5.0494  -17.4925 C   0  0  0  0  0  0  0  0  0  0  0  0
   -5.9432    4.8876  -18.4531 N   0  0  0  0  0  0  0  0  0  0  0  0
   -7.1972    4.6980  -18.0101 C   0  0  0  0  0  0  0  0  0  0  0  0
   -7.5856    4.6956  -16.6812 C   0  0  0  0  0  0  0  0  0  0  0  0
   -9.0343    4.3456  -16.5569 C   0  0  0  0  0  0  0  0  0  0  0  0
   -9.3947    3.8567  -17.9543 C   0  0  0  0  0  0  0  0  0  0  0  0
   -8.3865    4.4971  -18.8931 C   0  0  0  0  0  0  0  0  0  0  0  0
   -3.5772    5.1561  -17.9296 C   0  0  0  0  0  0  0  0  0  0  0  0
   -2.8692    6.2882  -17.1926 C   0  0  0  0  0  0  0  0  0  0  0  0
   -3.1573    6.3329  -15.6863 C   0  0  0  0  0  0  0  0  0  0  0  0
   -4.1297    5.2615  -15.1815 C   0  0  0  0  0  0  0  0  0  0  0  0
   -8.2508    4.0090  -11.8208 C   0  0  0  0  0  0  0  0  0  0  0  0
   -8.3072    3.7402  -10.4349 C   0  0  0  0  0  0  0  0  0  0  0  0
   -8.4914    2.6169   -9.7901 N   0  0  0  0  0  0  0  0  0  0  0  0
  1  2  2  0
  2  3  1  0
  3  4  2  0
  4  5  1  0
  5  6  1  0
  6  7  2  0
  7  8  1  0
  7  9  1  0
  9 10  1  0
 10 11  2  0
 10 12  1  0
 12 13  1  0
 13 14  2  0
 14 15  1  0
 15 16  2  0
 16 17  1  0
 17 18  2  0
 18 19  1  0
 19 20  1  0
 20 21  1  0
 15 22  1  0
 22 23  1  0
 23 24  1  0
 24 25  1  0
  9 26  2  0
 26 27  1  0
 27 28  2  0
 28  3  1  0
 27  5  1  0
 18 13  1  0
 25 14  1  0
 21 17  1  0
M  END
>  <name>  (984) 
P126369

>  <alias>  (984) 
None

>  <smina_score_min>  (984) 
-8.337

>  <exports>  (984) 
['/opt/xchem-fragalysis-2/maxwin/BulkDock/OUTPUTS/openbind_xx01zvns2b_c2_elabs_1LOUTNY.sdf', '/opt/xchem-fragalysis-2/maxwin/BulkDock/OUTPUTS/openbind_xx01zvns2b_c2_elabs_1LSYIIV.sdf']

>  <tags>  (984) 
syndirella_placed,openbind_xx01zvns2b_c2_elabs,openbind_xx01zvns2b_c2_elabs_scored_6.2plus,syndirella_product,openbind_xx01zvns2b_c2_elabs_scored,openbind_xx01zvns2b_c2_elabs_scored_top80percent,BulkDock Fragalysis export

>  <subsites>  (984) 
1 - Z4590/B/203/1

>  <smiles>  (984) 
O=Cc1cn2cc(Br)c(C(=O)Nc3c4c(nc5c3CCC5)CCCC4)cc2n1

>  <HIPPO Pose ID>  (984) 
126369

>  <energy_score>  (984) 
-36.258651

>  <inchikey>  (984) 
ORPKHTCVNQKHBI-UHFFFAOYSA-N

>  <gnina_score_min>  (984) 
6.353

>  <gnina_score>  (984) 
6.323

>  <ref_mols>  (984) 
Z1495a

>  <HIPPO Compound ID>  (984) 
188670

>  <distance_score>  (984) 
0.600283

>  <rmsd(smina/fragmenstein)>  (984) 
0.668

>  <ref_pdb>  (984) 
Z1495a

>  <inspiration_score>  (984) 
None

$$$$
P126371
     RDKit          3D

 28 31  0  0  0  0  0  0  0  0999 V2000
   -9.6709    3.7752  -17.2260 N   0  0  0  0  0  0  0  0  0  0  0  0
   -8.6078    4.2328  -17.1838 C   0  0  0  0  0  0  0  0  0  0  0  0
   -7.2686    4.7181  -17.2613 C   0  0  0  0  0  0  0  0  0  0  0  0
   -6.7229    4.8351  -18.5277 C   0  0  0  0  0  0  0  0  0  0  0  0
   -5.4345    5.1632  -18.7752 N   0  0  0  0  0  0  0  0  0  0  0  0
   -4.6233    5.3653  -17.7390 C   0  0  0  0  0  0  0  0  0  0  0  0
   -3.3143    5.7192  -18.0280 C   0  0  0  0  0  0  0  0  0  0  0  0
   -2.3917    5.9763  -17.0184 C   0  0  0  0  0  0  0  0  0  0  0  0
   -0.4573    6.5537  -17.5110 I   0  0  0  0  0  0  0  0  0  0  0  0
   -2.7703    5.8675  -15.6892 C   0  0  0  0  0  0  0  0  0  0  0  0
   -4.0860    5.5134  -15.3807 C   0  0  0  0  0  0  0  0  0  0  0  0
   -5.0466    5.2551  -16.3965 C   0  0  0  0  0  0  0  0  0  0  0  0
   -6.4214    4.9453  -16.1692 C   0  0  0  0  0  0  0  0  0  0  0  0
   -6.8740    4.8885  -14.8387 N   0  0  0  0  0  0  0  0  0  0  0  0
   -8.2138    5.3462  -14.2124 C   0  0  0  0  0  0  0  0  0  0  0  0
   -9.1768    5.7694  -14.7145 O   0  0  0  0  0  0  0  0  0  0  0  0
   -8.0939    5.2012  -12.7343 C   0  0  0  0  0  0  0  0  0  0  0  0
   -8.2019    3.9447  -12.2553 C   0  0  0  0  0  0  0  0  0  0  0  0
   -8.2483    3.7376  -10.8516 C   0  0  0  0  0  0  0  0  0  0  0  0
   -8.3669    2.6394  -10.1464 N   0  0  0  0  0  0  0  0  0  0  0  0
   -8.4589    3.0466   -8.8337 C   0  0  0  0  0  0  0  0  0  0  0  0
   -8.6970    2.1387   -7.7283 C   0  0  0  0  0  0  0  0  0  0  0  0
   -8.8429    2.5300   -6.5735 O   0  0  0  0  0  0  0  0  0  0  0  0
   -8.3155    4.4185   -8.7475 C   0  0  0  0  0  0  0  0  0  0  0  0
   -8.1973    4.8585  -10.0352 N   0  0  0  0  0  0  0  0  0  0  0  0
   -8.0463    6.1537  -10.5157 C   0  0  0  0  0  0  0  0  0  0  0  0
   -7.9785    6.3592  -11.8444 C   0  0  0  0  0  0  0  0  0  0  0  0
   -7.6996    8.0673  -12.5368 Br  0  0  0  0  0  0  0  0  0  0  0  0
  1  2  3  0
  2  3  1  0
  3  4  2  0
  4  5  1  0
  5  6  2  0
  6  7  1  0
  7  8  2  0
  8  9  1  0
  8 10  1  0
 10 11  2  0
 11 12  1  0
 12 13  2  0
 13 14  1  0
 14 15  1  0
 15 16  2  0
 15 17  1  0
 17 18  2  0
 18 19  1  0
 19 20  2  0
 20 21  1  0
 21 22  1  0
 22 23  2  0
 21 24  2  0
 24 25  1  0
 25 26  1  0
 26 27  2  0
 27 28  1  0
 13  3  1  0
 27 17  1  0
 12  6  1  0
 25 19  1  0
M  END
>  <name>  (985) 
P126371

>  <alias>  (985) 
None

>  <smina_score_min>  (985) 
-7.958

>  <exports>  (985) 
['/opt/xchem-fragalysis-2/maxwin/BulkDock/OUTPUTS/openbind_xx01zvns2b_c2_elabs_1LOUTNY.sdf', '/opt/xchem-fragalysis-2/maxwin/BulkDock/OUTPUTS/openbind_xx01zvns2b_c2_elabs_1LSYIIV.sdf']

>  <tags>  (985) 
syndirella_placed,openbind_xx01zvns2b_c2_elabs,openbind_xx01zvns2b_c2_elabs_scored_6.2plus,syndirella_product,openbind_xx01zvns2b_c2_elabs_scored,openbind_xx01zvns2b_c2_elabs_scored_top80percent,BulkDock Fragalysis export

>  <subsites>  (985) 
1 - Z4590/B/203/1

>  <smiles>  (985) 
N#Cc1cnc2cc(I)ccc2c1NC(=O)c1cc2nc(C=O)cn2cc1Br

>  <HIPPO Pose ID>  (985) 
126371

>  <energy_score>  (985) 
-13.127793

>  <inchikey>  (985) 
CKCANJRFSQNYDD-UHFFFAOYSA-N

>  <gnina_score_min>  (985) 
6.269

>  <gnina_score>  (985) 
6.035

>  <ref_mols>  (985) 
Z1495a

>  <HIPPO Compound ID>  (985) 
188673

>  <distance_score>  (985) 
0.487993

>  <rmsd(smina/fragmenstein)>  (985) 
0.454

>  <ref_pdb>  (985) 
Z1495a

>  <inspiration_score>  (985) 
None

$$$$
P126374
     RDKit          3D

 28 31  0  0  0  0  0  0  0  0999 V2000
   -9.7065    3.8470  -17.2478 N   0  0  0  0  0  0  0  0  0  0  0  0
   -8.6265    4.2627  -17.1938 C   0  0  0  0  0  0  0  0  0  0  0  0
   -7.2687    4.6993  -17.2513 C   0  0  0  0  0  0  0  0  0  0  0  0
   -6.6928    4.7892  -18.5041 C   0  0  0  0  0  0  0  0  0  0  0  0
   -5.3826    5.0460  -18.7219 N   0  0  0  0  0  0  0  0  0  0  0  0
   -4.5611    5.2142  -17.6721 C   0  0  0  0  0  0  0  0  0  0  0  0
   -3.1971    5.4752  -17.8747 C   0  0  0  0  0  0  0  0  0  0  0  0
   -2.4635    5.5567  -19.6339 Br  0  0  0  0  0  0  0  0  0  0  0  0
   -2.3073    5.6878  -16.8186 C   0  0  0  0  0  0  0  0  0  0  0  0
   -2.7701    5.6335  -15.5167 C   0  0  0  0  0  0  0  0  0  0  0  0
   -4.1170    5.3668  -15.2830 C   0  0  0  0  0  0  0  0  0  0  0  0
   -5.0397    5.1436  -16.3433 C   0  0  0  0  0  0  0  0  0  0  0  0
   -6.4325    4.8949  -16.1469 C   0  0  0  0  0  0  0  0  0  0  0  0
   -6.9095    4.8472  -14.8243 N   0  0  0  0  0  0  0  0  0  0  0  0
   -8.2298    5.3754  -14.2122 C   0  0  0  0  0  0  0  0  0  0  0  0
   -9.1577    5.8620  -14.7231 O   0  0  0  0  0  0  0  0  0  0  0  0
   -8.1310    5.2150  -12.7317 C   0  0  0  0  0  0  0  0  0  0  0  0
   -8.2141    3.9506  -12.2688 C   0  0  0  0  0  0  0  0  0  0  0  0
   -8.2639    3.7238  -10.8691 C   0  0  0  0  0  0  0  0  0  0  0  0
   -8.3615    2.6129  -10.1836 N   0  0  0  0  0  0  0  0  0  0  0  0
   -8.4918    2.9943   -8.8674 C   0  0  0  0  0  0  0  0  0  0  0  0
   -8.7498    2.0497   -7.7981 C   0  0  0  0  0  0  0  0  0  0  0  0
   -9.0196    2.3912   -6.6487 O   0  0  0  0  0  0  0  0  0  0  0  0
   -8.3765    4.3670   -8.7544 C   0  0  0  0  0  0  0  0  0  0  0  0
   -8.2462    4.8315  -10.0346 N   0  0  0  0  0  0  0  0  0  0  0  0
   -8.1180    6.1362  -10.4965 C   0  0  0  0  0  0  0  0  0  0  0  0
   -8.0453    6.3621  -11.8224 C   0  0  0  0  0  0  0  0  0  0  0  0
   -7.7952    8.0867  -12.4848 Br  0  0  0  0  0  0  0  0  0  0  0  0
  1  2  3  0
  2  3  1  0
  3  4  2  0
  4  5  1  0
  5  6  2  0
  6  7  1  0
  7  8  1  0
  7  9  2  0
  9 10  1  0
 10 11  2  0
 11 12  1  0
 12 13  2  0
 13 14  1  0
 14 15  1  0
 15 16  2  0
 15 17  1  0
 17 18  2  0
 18 19  1  0
 19 20  2  0
 20 21  1  0
 21 22  1  0
 22 23  2  0
 21 24  2  0
 24 25  1  0
 25 26  1  0
 26 27  2  0
 27 28  1  0
 13  3  1  0
 27 17  1  0
 12  6  1  0
 25 19  1  0
M  END
>  <name>  (986) 
P126374

>  <alias>  (986) 
None

>  <smina_score_min>  (986) 
-7.969

>  <exports>  (986) 
['/opt/xchem-fragalysis-2/maxwin/BulkDock/OUTPUTS/openbind_xx01zvns2b_c2_elabs_1LOUTNY.sdf', '/opt/xchem-fragalysis-2/maxwin/BulkDock/OUTPUTS/openbind_xx01zvns2b_c2_elabs_1LSYIIV.sdf']

>  <tags>  (986) 
syndirella_placed,openbind_xx01zvns2b_c2_elabs,openbind_xx01zvns2b_c2_elabs_scored_6.2plus,syndirella_product,openbind_xx01zvns2b_c2_elabs_scored,openbind_xx01zvns2b_c2_elabs_scored_top80percent,BulkDock Fragalysis export

>  <subsites>  (986) 
1 - Z4590/B/203/1

>  <smiles>  (986) 
N#Cc1cnc2c(Br)cccc2c1NC(=O)c1cc2nc(C=O)cn2cc1Br

>  <HIPPO Pose ID>  (986) 
126374

>  <energy_score>  (986) 
-18.070687

>  <inchikey>  (986) 
UWBCBEMUYXISHX-UHFFFAOYSA-N

>  <gnina_score_min>  (986) 
6.249

>  <gnina_score>  (986) 
6.094

>  <ref_mols>  (986) 
Z1495a

>  <HIPPO Compound ID>  (986) 
188678

>  <distance_score>  (986) 
0.483245

>  <rmsd(smina/fragmenstein)>  (986) 
0.331

>  <ref_pdb>  (986) 
Z1495a

>  <inspiration_score>  (986) 
None

$$$$
P126389
     RDKit          3D

 29 33  0  0  0  0  0  0  0  0999 V2000
   -0.8766    6.0834  -17.0307 C   0  0  0  0  0  0  0  0  0  0  0  0
   -2.3187    5.7027  -16.8346 C   0  0  0  0  0  0  0  0  0  0  0  0
   -2.8070    5.5525  -15.5393 C   0  0  0  0  0  0  0  0  0  0  0  0
   -4.1503    5.2465  -15.3238 C   0  0  0  0  0  0  0  0  0  0  0  0
   -5.0634    5.0748  -16.3951 C   0  0  0  0  0  0  0  0  0  0  0  0
   -6.4583    4.8222  -16.2202 C   0  0  0  0  0  0  0  0  0  0  0  0
   -6.9685    4.7738  -14.9128 N   0  0  0  0  0  0  0  0  0  0  0  0
   -8.2768    5.3503  -14.3237 C   0  0  0  0  0  0  0  0  0  0  0  0
   -9.1687    5.8872  -14.8475 O   0  0  0  0  0  0  0  0  0  0  0  0
   -8.2079    5.2103  -12.8426 C   0  0  0  0  0  0  0  0  0  0  0  0
   -8.1674    6.4107  -12.0110 C   0  0  0  0  0  0  0  0  0  0  0  0
   -8.1732    6.2729  -10.6746 C   0  0  0  0  0  0  0  0  0  0  0  0
   -8.2299    4.9928  -10.1305 N   0  0  0  0  0  0  0  0  0  0  0  0
   -8.2623    4.6093   -8.8198 C   0  0  0  0  0  0  0  0  0  0  0  0
   -8.3637    3.2379   -8.8538 C   0  0  0  0  0  0  0  0  0  0  0  0
   -8.4320    2.3122   -7.6227 C   0  0  0  0  0  0  0  0  0  0  0  0
   -8.6978    2.9137   -6.2659 C   0  0  0  0  0  0  0  0  0  0  0  0
   -9.7339    2.0514   -6.9217 C   0  0  0  0  0  0  0  0  0  0  0  0
   -8.3388    2.7665  -10.1350 N   0  0  0  0  0  0  0  0  0  0  0  0
   -8.2682    3.8327  -10.8936 C   0  0  0  0  0  0  0  0  0  0  0  0
   -8.2467    3.9742  -12.3068 C   0  0  0  0  0  0  0  0  0  0  0  0
   -7.2868    4.6613  -17.3340 C   0  0  0  0  0  0  0  0  0  0  0  0
   -8.6453    4.2253  -17.2956 C   0  0  0  0  0  0  0  0  0  0  0  0
   -9.7226    3.8043  -17.3660 N   0  0  0  0  0  0  0  0  0  0  0  0
   -6.7018    4.7909  -18.5751 C   0  0  0  0  0  0  0  0  0  0  0  0
   -5.3954    5.0750  -18.7707 N   0  0  0  0  0  0  0  0  0  0  0  0
   -4.5768    5.2152  -17.7137 C   0  0  0  0  0  0  0  0  0  0  0  0
   -3.2152    5.5258  -17.9059 C   0  0  0  0  0  0  0  0  0  0  0  0
   -2.5709    5.7379  -19.7023 Br  0  0  0  0  0  0  0  0  0  0  0  0
  1  2  1  0
  2  3  2  0
  3  4  1  0
  4  5  2  0
  5  6  1  0
  6  7  1  0
  7  8  1  0
  8  9  2  0
  8 10  1  0
 10 11  1  0
 11 12  2  0
 12 13  1  0
 13 14  1  0
 14 15  2  0
 15 16  1  0
 16 17  1  0
 17 18  1  0
 15 19  1  0
 19 20  2  0
 20 21  1  0
  6 22  2  0
 22 23  1  0
 23 24  3  0
 22 25  1  0
 25 26  2  0
 26 27  1  0
 27 28  2  0
 28 29  1  0
 28  2  1  0
 27  5  1  0
 21 10  2  0
 20 13  1  0
 18 16  1  0
M  END
>  <name>  (987) 
P126389

>  <alias>  (987) 
None

>  <smina_score_min>  (987) 
-8.295

>  <exports>  (987) 
['/opt/xchem-fragalysis-2/maxwin/BulkDock/OUTPUTS/openbind_xx01zvns2b_c2_elabs_1LOUTNY.sdf', '/opt/xchem-fragalysis-2/maxwin/BulkDock/OUTPUTS/openbind_xx01zvns2b_c2_elabs_1LSYIIV.sdf']

>  <tags>  (987) 
syndirella_placed,openbind_xx01zvns2b_c2_elabs,openbind_xx01zvns2b_c2_elabs_scored_6.2plus,syndirella_product,openbind_xx01zvns2b_c2_elabs_scored,openbind_xx01zvns2b_c2_elabs_scored_top80percent,BulkDock Fragalysis export

>  <subsites>  (987) 
1 - Z4590/B/203/1

>  <smiles>  (987) 
Cc1ccc2c(NC(=O)c3ccn4cc(C5CC5)nc4c3)c(C#N)cnc2c1Br

>  <HIPPO Pose ID>  (987) 
126389

>  <energy_score>  (987) 
-27.107892

>  <inchikey>  (987) 
JSKKBUNQTWPSGN-UHFFFAOYSA-N

>  <gnina_score_min>  (987) 
6.386

>  <gnina_score>  (987) 
6.239

>  <ref_mols>  (987) 
Z1495a

>  <HIPPO Compound ID>  (987) 
188708

>  <distance_score>  (987) 
0.519806

>  <rmsd(smina/fragmenstein)>  (987) 
0.462

>  <ref_pdb>  (987) 
Z1495a

>  <inspiration_score>  (987) 
None

$$$$
P126397
     RDKit          3D

 29 33  0  0  0  0  0  0  0  0999 V2000
   -8.0717    6.5312  -14.8703 O   0  0  0  0  0  0  0  0  0  0  0  0
   -7.2774    5.9475  -14.2435 C   0  0  0  0  0  0  0  0  0  0  0  0
   -5.9411    5.2863  -14.6776 N   0  0  0  0  0  0  0  0  0  0  0  0
   -5.3724    5.1304  -15.9528 C   0  0  0  0  0  0  0  0  0  0  0  0
   -3.9801    5.1872  -15.9837 C   0  0  0  0  0  0  0  0  0  0  0  0
   -3.3230    5.0908  -17.1986 C   0  0  0  0  0  0  0  0  0  0  0  0
   -3.9360    4.8885  -18.3719 N   0  0  0  0  0  0  0  0  0  0  0  0
   -5.2782    4.7646  -18.3074 C   0  0  0  0  0  0  0  0  0  0  0  0
   -6.0725    4.8798  -17.1506 C   0  0  0  0  0  0  0  0  0  0  0  0
   -7.5107    4.6403  -17.3028 C   0  0  0  0  0  0  0  0  0  0  0  0
   -8.1479    4.9989  -18.4959 C   0  0  0  0  0  0  0  0  0  0  0  0
   -9.4913    4.7455  -18.7246 C   0  0  0  0  0  0  0  0  0  0  0  0
  -10.2573    4.2804  -17.6927 C   0  0  0  0  0  0  0  0  0  0  0  0
  -11.5653    4.0893  -17.8707 F   0  0  0  0  0  0  0  0  0  0  0  0
   -9.6669    3.9697  -16.4906 C   0  0  0  0  0  0  0  0  0  0  0  0
   -8.3002    4.0321  -16.3449 C   0  0  0  0  0  0  0  0  0  0  0  0
   -7.7644    3.4857  -15.2495 F   0  0  0  0  0  0  0  0  0  0  0  0
   -7.5172    5.6388  -12.7912 C   0  0  0  0  0  0  0  0  0  0  0  0
   -7.8601    6.7143  -11.8628 C   0  0  0  0  0  0  0  0  0  0  0  0
   -8.1704    6.4073  -10.5902 C   0  0  0  0  0  0  0  0  0  0  0  0
   -8.1644    5.0720  -10.1934 N   0  0  0  0  0  0  0  0  0  0  0  0
   -8.4086    4.5219   -8.9651 C   0  0  0  0  0  0  0  0  0  0  0  0
   -8.2548    3.1658   -9.1428 C   0  0  0  0  0  0  0  0  0  0  0  0
   -8.3872    2.0782   -8.0561 C   0  0  0  0  0  0  0  0  0  0  0  0
   -9.6777    1.8773   -7.3151 C   0  0  0  0  0  0  0  0  0  0  0  0
   -8.4977    2.4697   -6.6085 C   0  0  0  0  0  0  0  0  0  0  0  0
   -7.8923    2.8680  -10.4286 N   0  0  0  0  0  0  0  0  0  0  0  0
   -7.8644    4.0227  -11.0503 C   0  0  0  0  0  0  0  0  0  0  0  0
   -7.5601    4.3457  -12.3991 C   0  0  0  0  0  0  0  0  0  0  0  0
  1  2  2  0
  2  3  1  0
  3  4  1  0
  4  5  2  0
  5  6  1  0
  6  7  2  0
  7  8  1  0
  8  9  2  0
  9 10  1  0
 10 11  2  0
 11 12  1  0
 12 13  2  0
 13 14  1  0
 13 15  1  0
 15 16  2  0
 16 17  1  0
  2 18  1  0
 18 19  1  0
 19 20  2  0
 20 21  1  0
 21 22  1  0
 22 23  2  0
 23 24  1  0
 24 25  1  0
 25 26  1  0
 23 27  1  0
 27 28  2  0
 28 29  1  0
  9  4  1  0
 16 10  1  0
 29 18  2  0
 28 21  1  0
 26 24  1  0
M  END
>  <name>  (988) 
P126397

>  <alias>  (988) 
None

>  <smina_score_min>  (988) 
-7.538

>  <exports>  (988) 
['/opt/xchem-fragalysis-2/maxwin/BulkDock/OUTPUTS/openbind_xx01zvns2b_c2_elabs_1LOUTNY.sdf', '/opt/xchem-fragalysis-2/maxwin/BulkDock/OUTPUTS/openbind_xx01zvns2b_c2_elabs_1LSYIIV.sdf']

>  <tags>  (988) 
syndirella_placed,openbind_xx01zvns2b_c2_elabs,openbind_xx01zvns2b_c2_elabs_scored_6.2plus,syndirella_product,openbind_xx01zvns2b_c2_elabs_scored,openbind_xx01zvns2b_c2_elabs_scored_top80percent,BulkDock Fragalysis export

>  <subsites>  (988) 
1 - Z4590/B/203/1

>  <smiles>  (988) 
O=C(Nc1ccncc1-c1ccc(F)cc1F)c1ccn2cc(C3CC3)nc2c1

>  <HIPPO Pose ID>  (988) 
126397

>  <energy_score>  (988) 
-15.803912

>  <inchikey>  (988) 
HHCCZYJIXTXBDF-UHFFFAOYSA-N

>  <gnina_score_min>  (988) 
6.29

>  <gnina_score>  (988) 
6.208

>  <ref_mols>  (988) 
Z1495a

>  <HIPPO Compound ID>  (988) 
188724

>  <distance_score>  (988) 
1.312828

>  <rmsd(smina/fragmenstein)>  (988) 
0.969

>  <ref_pdb>  (988) 
Z1495a

>  <inspiration_score>  (988) 
None

$$$$
P126423
     RDKit          3D

 29 33  0  0  0  0  0  0  0  0999 V2000
   -9.1810    6.2406  -14.0377 O   0  0  0  0  0  0  0  0  0  0  0  0
   -8.2343    5.6760  -13.6528 C   0  0  0  0  0  0  0  0  0  0  0  0
   -7.0155    5.1164  -14.4266 N   0  0  0  0  0  0  0  0  0  0  0  0
   -6.7644    5.0540  -15.7937 C   0  0  0  0  0  0  0  0  0  0  0  0
   -5.4633    5.1874  -16.2890 C   0  0  0  0  0  0  0  0  0  0  0  0
   -5.2655    5.0683  -17.6767 C   0  0  0  0  0  0  0  0  0  0  0  0
   -6.2466    4.8030  -18.5643 N   0  0  0  0  0  0  0  0  0  0  0  0
   -7.4759    4.6506  -18.0436 C   0  0  0  0  0  0  0  0  0  0  0  0
   -7.7776    4.7682  -16.6928 C   0  0  0  0  0  0  0  0  0  0  0  0
   -9.1737    4.2959  -16.4392 C   0  0  0  0  0  0  0  0  0  0  0  0
   -9.8046    4.3361  -17.8232 C   0  0  0  0  0  0  0  0  0  0  0  0
   -8.6601    4.1144  -18.7972 C   0  0  0  0  0  0  0  0  0  0  0  0
   -3.8625    5.1816  -18.2085 C   0  0  0  0  0  0  0  0  0  0  0  0
   -3.1451    6.3711  -17.5785 C   0  0  0  0  0  0  0  0  0  0  0  0
   -3.3079    6.4658  -16.0553 C   0  0  0  0  0  0  0  0  0  0  0  0
   -4.2455    5.4231  -15.4369 C   0  0  0  0  0  0  0  0  0  0  0  0
   -8.0625    5.3471  -12.2190 C   0  0  0  0  0  0  0  0  0  0  0  0
   -7.8584    6.4076  -11.2438 C   0  0  0  0  0  0  0  0  0  0  0  0
   -7.9110    6.0941   -9.9387 C   0  0  0  0  0  0  0  0  0  0  0  0
   -8.1657    4.7745   -9.5704 N   0  0  0  0  0  0  0  0  0  0  0  0
   -8.3263    4.2400   -8.3221 C   0  0  0  0  0  0  0  0  0  0  0  0
   -8.6699    2.9089   -8.5142 C   0  0  0  0  0  0  0  0  0  0  0  0
   -9.0655    1.9094   -7.4662 C   0  0  0  0  0  0  0  0  0  0  0  0
   -9.8799    0.9214   -7.9110 F   0  0  0  0  0  0  0  0  0  0  0  0
   -7.9962    1.3274   -6.8736 F   0  0  0  0  0  0  0  0  0  0  0  0
   -9.7516    2.5356   -6.4617 F   0  0  0  0  0  0  0  0  0  0  0  0
   -8.6438    2.6200   -9.8695 N   0  0  0  0  0  0  0  0  0  0  0  0
   -8.3493    3.7421  -10.4794 C   0  0  0  0  0  0  0  0  0  0  0  0
   -8.2773    4.0648  -11.8605 C   0  0  0  0  0  0  0  0  0  0  0  0
  1  2  2  0
  2  3  1  0
  3  4  1  0
  4  5  2  0
  5  6  1  0
  6  7  2  0
  7  8  1  0
  8  9  2  0
  9 10  1  0
 10 11  1  0
 11 12  1  0
  6 13  1  0
 13 14  1  0
 14 15  1  0
 15 16  1  0
  2 17  1  0
 17 18  1  0
 18 19  2  0
 19 20  1  0
 20 21  1  0
 21 22  2  0
 22 23  1  0
 23 24  1  0
 23 25  1  0
 23 26  1  0
 22 27  1  0
 27 28  2  0
 28 29  1  0
  9  4  1  0
 29 17  2  0
 16  5  1  0
 28 20  1  0
 12  8  1  0
M  END
>  <name>  (989) 
P126423

>  <alias>  (989) 
None

>  <smina_score_min>  (989) 
-8.792

>  <exports>  (989) 
['/opt/xchem-fragalysis-2/maxwin/BulkDock/OUTPUTS/openbind_xx01zvns2b_c2_elabs_1LOUTNY.sdf', '/opt/xchem-fragalysis-2/maxwin/BulkDock/OUTPUTS/openbind_xx01zvns2b_c2_elabs_1LSYIIV.sdf']

>  <tags>  (989) 
syndirella_placed,openbind_xx01zvns2b_c2_elabs,openbind_xx01zvns2b_c2_elabs_scored_6.2plus,syndirella_product,openbind_xx01zvns2b_c2_elabs_scored,openbind_xx01zvns2b_c2_elabs_scored_top80percent,BulkDock Fragalysis export

>  <subsites>  (989) 
1 - Z4590/B/203/1

>  <smiles>  (989) 
O=C(Nc1c2c(nc3c1CCC3)CCCC2)c1ccn2cc(C(F)(F)F)nc2c1

>  <HIPPO Pose ID>  (989) 
126423

>  <energy_score>  (989) 
-30.304186

>  <inchikey>  (989) 
VFGJBESBBOZKSP-UHFFFAOYSA-N

>  <gnina_score_min>  (989) 
6.231

>  <gnina_score>  (989) 
6.173

>  <ref_mols>  (989) 
Z1495a

>  <HIPPO Compound ID>  (989) 
188761

>  <distance_score>  (989) 
0.563561

>  <rmsd(smina/fragmenstein)>  (989) 
0.544

>  <ref_pdb>  (989) 
Z1495a

>  <inspiration_score>  (989) 
None

$$$$
P126433
     RDKit          3D

 29 32  0  0  0  0  0  0  0  0999 V2000
   -0.9135    6.0916  -17.0547 C   0  0  0  0  0  0  0  0  0  0  0  0
   -2.3510    5.7201  -16.8124 C   0  0  0  0  0  0  0  0  0  0  0  0
   -2.7963    5.5623  -15.5029 C   0  0  0  0  0  0  0  0  0  0  0  0
   -4.1324    5.2565  -15.2443 C   0  0  0  0  0  0  0  0  0  0  0  0
   -5.0837    5.0913  -16.2837 C   0  0  0  0  0  0  0  0  0  0  0  0
   -6.4721    4.8233  -16.0606 C   0  0  0  0  0  0  0  0  0  0  0  0
   -6.9225    4.7220  -14.7275 N   0  0  0  0  0  0  0  0  0  0  0  0
   -8.2455    5.1950  -14.0738 C   0  0  0  0  0  0  0  0  0  0  0  0
   -9.1970    5.6712  -14.5521 O   0  0  0  0  0  0  0  0  0  0  0  0
   -8.1053    5.0284  -12.5962 C   0  0  0  0  0  0  0  0  0  0  0  0
   -8.3605    3.7988  -12.1056 C   0  0  0  0  0  0  0  0  0  0  0  0
   -8.4018    3.5989  -10.7000 C   0  0  0  0  0  0  0  0  0  0  0  0
   -8.7427    2.5550   -9.9860 N   0  0  0  0  0  0  0  0  0  0  0  0
   -8.5997    2.9230   -8.6663 C   0  0  0  0  0  0  0  0  0  0  0  0
   -8.8922    2.0519   -7.5364 C   0  0  0  0  0  0  0  0  0  0  0  0
   -9.7215    1.1464   -7.5272 O   0  0  0  0  0  0  0  0  0  0  0  0
   -8.1571    4.2330   -8.5923 C   0  0  0  0  0  0  0  0  0  0  0  0
   -8.0955    4.6787   -9.8888 N   0  0  0  0  0  0  0  0  0  0  0  0
   -7.7932    5.9452  -10.3810 C   0  0  0  0  0  0  0  0  0  0  0  0
   -7.7972    6.1559  -11.7121 C   0  0  0  0  0  0  0  0  0  0  0  0
   -7.3680    7.8257  -12.4249 Br  0  0  0  0  0  0  0  0  0  0  0  0
   -7.3311    4.6803  -17.1552 C   0  0  0  0  0  0  0  0  0  0  0  0
   -8.6874    4.2454  -17.1015 C   0  0  0  0  0  0  0  0  0  0  0  0
   -9.7695    3.8409  -17.1855 N   0  0  0  0  0  0  0  0  0  0  0  0
   -6.7881    4.8379  -18.4152 C   0  0  0  0  0  0  0  0  0  0  0  0
   -5.4909    5.1261  -18.6492 N   0  0  0  0  0  0  0  0  0  0  0  0
   -4.6395    5.2493  -17.6174 C   0  0  0  0  0  0  0  0  0  0  0  0
   -3.2843    5.5573  -17.8535 C   0  0  0  0  0  0  0  0  0  0  0  0
   -2.6995    5.7820  -19.6689 Br  0  0  0  0  0  0  0  0  0  0  0  0
  1  2  1  0
  2  3  2  0
  3  4  1  0
  4  5  2  0
  5  6  1  0
  6  7  1  0
  7  8  1  0
  8  9  2  0
  8 10  1  0
 10 11  2  0
 11 12  1  0
 12 13  2  0
 13 14  1  0
 14 15  1  0
 15 16  2  0
 14 17  2  0
 17 18  1  0
 18 19  1  0
 19 20  2  0
 20 21  1  0
  6 22  2  0
 22 23  1  0
 23 24  3  0
 22 25  1  0
 25 26  2  0
 26 27  1  0
 27 28  2  0
 28 29  1  0
 28  2  1  0
 27  5  1  0
 20 10  1  0
 18 12  1  0
M  END
>  <name>  (990) 
P126433

>  <alias>  (990) 
None

>  <smina_score_min>  (990) 
-8.221

>  <exports>  (990) 
['/opt/xchem-fragalysis-2/maxwin/BulkDock/OUTPUTS/openbind_xx01zvns2b_c2_elabs_1LOUTNY.sdf', '/opt/xchem-fragalysis-2/maxwin/BulkDock/OUTPUTS/openbind_xx01zvns2b_c2_elabs_1LSYIIV.sdf']

>  <tags>  (990) 
syndirella_placed,openbind_xx01zvns2b_c2_elabs,openbind_xx01zvns2b_c2_elabs_scored_6.2plus,syndirella_product,openbind_xx01zvns2b_c2_elabs_scored,openbind_xx01zvns2b_c2_elabs_scored_top80percent,BulkDock Fragalysis export

>  <subsites>  (990) 
1 - Z4590/B/203/1

>  <smiles>  (990) 
Cc1ccc2c(NC(=O)c3cc4nc(C=O)cn4cc3Br)c(C#N)cnc2c1Br

>  <HIPPO Pose ID>  (990) 
126433

>  <energy_score>  (990) 
-211.165226

>  <inchikey>  (990) 
YZQAUKAZPPFBRI-UHFFFAOYSA-N

>  <gnina_score_min>  (990) 
6.384

>  <gnina_score>  (990) 
6.236

>  <ref_mols>  (990) 
Z1495a

>  <HIPPO Compound ID>  (990) 
188780

>  <distance_score>  (990) 
0.510978

>  <rmsd(smina/fragmenstein)>  (990) 
0.329

>  <ref_pdb>  (990) 
Z1495a

>  <inspiration_score>  (990) 
None

$$$$
P126445
     RDKit          3D

 29 33  0  0  0  0  0  0  0  0999 V2000
   -9.7912    1.0160   -7.4804 O   0  0  0  0  0  0  0  0  0  0  0  0
   -8.9481    1.9058   -7.4155 C   0  0  0  0  0  0  0  0  0  0  0  0
   -8.6390    2.8558   -8.4724 C   0  0  0  0  0  0  0  0  0  0  0  0
   -8.1935    4.1525   -8.2858 C   0  0  0  0  0  0  0  0  0  0  0  0
   -8.1356    4.7084   -9.5368 N   0  0  0  0  0  0  0  0  0  0  0  0
   -7.8357    6.0151   -9.9104 C   0  0  0  0  0  0  0  0  0  0  0  0
   -7.8503    6.3484  -11.2143 C   0  0  0  0  0  0  0  0  0  0  0  0
   -7.4351    8.0763  -11.7774 Br  0  0  0  0  0  0  0  0  0  0  0  0
   -8.1684    5.3053  -12.1838 C   0  0  0  0  0  0  0  0  0  0  0  0
   -8.2809    5.5788  -13.6358 C   0  0  0  0  0  0  0  0  0  0  0  0
   -9.2145    6.0938  -14.1115 O   0  0  0  0  0  0  0  0  0  0  0  0
   -6.9779    5.0558  -14.2928 N   0  0  0  0  0  0  0  0  0  0  0  0
   -6.6086    4.9757  -15.6396 C   0  0  0  0  0  0  0  0  0  0  0  0
   -7.5065    4.5987  -16.6394 C   0  0  0  0  0  0  0  0  0  0  0  0
   -6.9917    4.5133  -17.9370 C   0  0  0  0  0  0  0  0  0  0  0  0
   -5.7144    4.7971  -18.2809 N   0  0  0  0  0  0  0  0  0  0  0  0
   -4.8663    5.1396  -17.3158 C   0  0  0  0  0  0  0  0  0  0  0  0
   -3.5538    5.4080  -17.6810 C   0  0  0  0  0  0  0  0  0  0  0  0
   -2.5860    5.7761  -16.7467 C   0  0  0  0  0  0  0  0  0  0  0  0
   -2.9358    5.8833  -15.4104 C   0  0  0  0  0  0  0  0  0  0  0  0
   -4.2502    5.6212  -15.0222 C   0  0  0  0  0  0  0  0  0  0  0  0
   -5.2440    5.2353  -15.9626 C   0  0  0  0  0  0  0  0  0  0  0  0
   -7.9143    4.0696  -19.0340 C   0  0  0  0  0  0  0  0  0  0  0  0
   -9.2170    4.8009  -18.8594 C   0  0  0  0  0  0  0  0  0  0  0  0
   -9.8957    4.4291  -17.5545 C   0  0  0  0  0  0  0  0  0  0  0  0
   -8.9067    4.0658  -16.4407 C   0  0  0  0  0  0  0  0  0  0  0  0
   -8.4281    4.0331  -11.8171 C   0  0  0  0  0  0  0  0  0  0  0  0
   -8.4491    3.7033  -10.4381 C   0  0  0  0  0  0  0  0  0  0  0  0
   -8.7725    2.5951   -9.8188 N   0  0  0  0  0  0  0  0  0  0  0  0
  1  2  2  0
  2  3  1  0
  3  4  2  0
  4  5  1  0
  5  6  1  0
  6  7  2  0
  7  8  1  0
  7  9  1  0
  9 10  1  0
 10 11  2  0
 10 12  1  0
 12 13  1  0
 13 14  2  0
 14 15  1  0
 15 16  2  0
 16 17  1  0
 17 18  2  0
 18 19  1  0
 19 20  2  0
 20 21  1  0
 21 22  2  0
 15 23  1  0
 23 24  1  0
 24 25  1  0
 25 26  1  0
  9 27  2  0
 27 28  1  0
 28 29  2  0
 29  3  1  0
 28  5  1  0
 22 13  1  0
 26 14  1  0
 22 17  1  0
M  END
>  <name>  (991) 
P126445

>  <alias>  (991) 
None

>  <smina_score_min>  (991) 
-7.94

>  <exports>  (991) 
['/opt/xchem-fragalysis-2/maxwin/BulkDock/OUTPUTS/openbind_xx01zvns2b_c2_elabs_1LOUTNY.sdf', '/opt/xchem-fragalysis-2/maxwin/BulkDock/OUTPUTS/openbind_xx01zvns2b_c2_elabs_1LSYIIV.sdf']

>  <tags>  (991) 
syndirella_placed,openbind_xx01zvns2b_c2_elabs,openbind_xx01zvns2b_c2_elabs_scored_6.2plus,syndirella_product,openbind_xx01zvns2b_c2_elabs_scored,openbind_xx01zvns2b_c2_elabs_scored_top80percent,BulkDock Fragalysis export

>  <subsites>  (991) 
1 - Z4590/B/203/1

>  <smiles>  (991) 
O=Cc1cn2cc(Br)c(C(=O)Nc3c4c(nc5ccccc35)CCCC4)cc2n1

>  <HIPPO Pose ID>  (991) 
126445

>  <energy_score>  (991) 
-36.665806

>  <inchikey>  (991) 
MIAJIRCYBPQRLG-UHFFFAOYSA-N

>  <gnina_score_min>  (991) 
6.297

>  <gnina_score>  (991) 
6.288

>  <ref_mols>  (991) 
Z1495a

>  <HIPPO Compound ID>  (991) 
188800

>  <distance_score>  (991) 
0.659084

>  <rmsd(smina/fragmenstein)>  (991) 
0.327

>  <ref_pdb>  (991) 
Z1495a

>  <inspiration_score>  (991) 
None

$$$$
P126448
     RDKit          3D

 30 32  0  0  0  0  0  0  0  0999 V2000
   -8.9818    4.1214  -17.0658 C   0  0  0  0  0  0  0  0  0  0  0  0
   -7.5468    4.5402  -17.1974 C   0  0  0  0  0  0  0  0  0  0  0  0
   -7.0302    4.6895  -18.4822 C   0  0  0  0  0  0  0  0  0  0  0  0
   -5.7312    4.9225  -18.7642 N   0  0  0  0  0  0  0  0  0  0  0  0
   -4.8853    4.9718  -17.7226 C   0  0  0  0  0  0  0  0  0  0  0  0
   -3.2538    5.1789  -18.2462 Cl  0  0  0  0  0  0  0  0  0  0  0  0
   -5.2796    4.8606  -16.3946 C   0  0  0  0  0  0  0  0  0  0  0  0
   -3.8798    4.9681  -14.8095 I   0  0  0  0  0  0  0  0  0  0  0  0
   -6.6535    4.7002  -16.1276 C   0  0  0  0  0  0  0  0  0  0  0  0
   -7.0666    4.6976  -14.7886 N   0  0  0  0  0  0  0  0  0  0  0  0
   -8.3717    5.2140  -14.1391 C   0  0  0  0  0  0  0  0  0  0  0  0
   -9.3371    5.6513  -14.6263 O   0  0  0  0  0  0  0  0  0  0  0  0
   -8.2083    5.1340  -12.6637 C   0  0  0  0  0  0  0  0  0  0  0  0
   -8.1346    6.3635  -11.8817 C   0  0  0  0  0  0  0  0  0  0  0  0
   -8.1648    6.2757  -10.5419 C   0  0  0  0  0  0  0  0  0  0  0  0
   -8.2623    5.0186   -9.9521 N   0  0  0  0  0  0  0  0  0  0  0  0
   -8.3899    4.6934   -8.6332 C   0  0  0  0  0  0  0  0  0  0  0  0
   -8.5305    3.3180   -8.5951 C   0  0  0  0  0  0  0  0  0  0  0  0
   -8.8080    2.4454   -7.4182 C   0  0  0  0  0  0  0  0  0  0  0  0
   -7.9821    2.8812   -6.3283 N   0  0  0  0  0  0  0  0  0  0  0  0
   -8.2115    3.9572   -5.2877 C   0  0  0  0  0  0  0  0  0  0  0  0
   -9.1379    4.6227   -5.0862 O   0  0  0  0  0  0  0  0  0  0  0  0
   -7.0318    4.0582   -4.6020 O   0  0  0  0  0  0  0  0  0  0  0  0
   -6.8495    5.1264   -3.6342 C   0  0  0  0  0  0  0  0  0  0  0  0
   -7.8478    5.0382   -2.4732 C   0  0  0  0  0  0  0  0  0  0  0  0
   -6.8966    6.4982   -4.3204 C   0  0  0  0  0  0  0  0  0  0  0  0
   -5.4322    4.9146   -3.0786 C   0  0  0  0  0  0  0  0  0  0  0  0
   -8.4111    2.7960   -9.8651 N   0  0  0  0  0  0  0  0  0  0  0  0
   -8.2901    3.8284  -10.6666 C   0  0  0  0  0  0  0  0  0  0  0  0
   -8.2551    3.9167  -12.0852 C   0  0  0  0  0  0  0  0  0  0  0  0
  1  2  1  0
  2  3  2  0
  3  4  1  0
  4  5  2  0
  5  6  1  0
  5  7  1  0
  7  8  1  0
  7  9  2  0
  9 10  1  0
 10 11  1  0
 11 12  2  0
 11 13  1  0
 13 14  1  0
 14 15  2  0
 15 16  1  0
 16 17  1  0
 17 18  2  0
 18 19  1  0
 19 20  1  0
 20 21  1  0
 21 22  2  0
 21 23  1  0
 23 24  1  0
 24 25  1  0
 24 26  1  0
 24 27  1  0
 18 28  1  0
 28 29  2  0
 29 30  1  0
  9  2  1  0
 30 13  2  0
 29 16  1  0
M  END
>  <name>  (992) 
P126448

>  <alias>  (992) 
None

>  <smina_score_min>  (992) 
-8.367

>  <exports>  (992) 
['/opt/xchem-fragalysis-2/maxwin/BulkDock/OUTPUTS/openbind_xx01zvns2b_c2_elabs_1LOUTNY.sdf', '/opt/xchem-fragalysis-2/maxwin/BulkDock/OUTPUTS/openbind_xx01zvns2b_c2_elabs_1LSYIIV.sdf']

>  <tags>  (992) 
syndirella_placed,openbind_xx01zvns2b_c2_elabs,openbind_xx01zvns2b_c2_elabs_scored_6.2plus,syndirella_product,openbind_xx01zvns2b_c2_elabs_scored,openbind_xx01zvns2b_c2_elabs_scored_top80percent,BulkDock Fragalysis export

>  <subsites>  (992) 
1 - Z4590/B/203/1

>  <smiles>  (992) 
Cc1cnc(Cl)c(I)c1NC(=O)c1ccn2cc(CNC(=O)OC(C)(C)C)nc2c1

>  <HIPPO Pose ID>  (992) 
126448

>  <energy_score>  (992) 
-27.701584

>  <inchikey>  (992) 
QIKJDBUCGHDCJP-UHFFFAOYSA-N

>  <gnina_score_min>  (992) 
6.307

>  <gnina_score>  (992) 
6.109

>  <ref_mols>  (992) 
Z1495a

>  <HIPPO Compound ID>  (992) 
188803

>  <distance_score>  (992) 
0.469294

>  <rmsd(smina/fragmenstein)>  (992) 
1.339

>  <ref_pdb>  (992) 
Z1495a

>  <inspiration_score>  (992) 
None

$$$$
P126457
     RDKit          3D

 30 32  0  0  0  0  0  0  0  0999 V2000
   -8.9078    4.1974  -17.2222 C   0  0  0  0  0  0  0  0  0  0  0  0
   -7.4821    4.6448  -17.3833 C   0  0  0  0  0  0  0  0  0  0  0  0
   -6.9307    4.6367  -18.6595 C   0  0  0  0  0  0  0  0  0  0  0  0
   -5.6250    4.8537  -18.9321 N   0  0  0  0  0  0  0  0  0  0  0  0
   -4.8139    5.0678  -17.8846 C   0  0  0  0  0  0  0  0  0  0  0  0
   -3.1683    5.2420  -18.3693 Cl  0  0  0  0  0  0  0  0  0  0  0  0
   -5.2449    5.1298  -16.5697 C   0  0  0  0  0  0  0  0  0  0  0  0
   -4.0357    5.4723  -15.1385 Br  0  0  0  0  0  0  0  0  0  0  0  0
   -6.6187    4.9715  -16.3281 C   0  0  0  0  0  0  0  0  0  0  0  0
   -7.0733    5.0800  -15.0146 N   0  0  0  0  0  0  0  0  0  0  0  0
   -8.3684    5.7076  -14.4490 C   0  0  0  0  0  0  0  0  0  0  0  0
   -9.2895    6.1616  -14.9981 O   0  0  0  0  0  0  0  0  0  0  0  0
   -8.3277    5.5551  -12.9865 C   0  0  0  0  0  0  0  0  0  0  0  0
   -8.2189    6.6495  -12.0360 C   0  0  0  0  0  0  0  0  0  0  0  0
   -8.2114    6.3485  -10.7218 C   0  0  0  0  0  0  0  0  0  0  0  0
   -8.3406    5.0124  -10.3354 N   0  0  0  0  0  0  0  0  0  0  0  0
   -8.2298    4.4264   -9.1012 C   0  0  0  0  0  0  0  0  0  0  0  0
   -8.2477    3.0676   -9.3753 C   0  0  0  0  0  0  0  0  0  0  0  0
   -7.6118    1.9699   -8.6409 C   0  0  0  0  0  0  0  0  0  0  0  0
   -6.2105    2.0584   -8.9861 N   0  0  0  0  0  0  0  0  0  0  0  0
   -5.5087    1.8807  -10.3215 C   0  0  0  0  0  0  0  0  0  0  0  0
   -5.9428    1.7091  -11.3826 O   0  0  0  0  0  0  0  0  0  0  0  0
   -4.1900    2.0313  -10.0180 O   0  0  0  0  0  0  0  0  0  0  0  0
   -3.1881    2.1528  -11.0555 C   0  0  0  0  0  0  0  0  0  0  0  0
   -3.1308    0.9228  -11.9589 C   0  0  0  0  0  0  0  0  0  0  0  0
   -3.4090    3.4355  -11.8638 C   0  0  0  0  0  0  0  0  0  0  0  0
   -1.8570    2.2667  -10.2977 C   0  0  0  0  0  0  0  0  0  0  0  0
   -8.6305    2.8217  -10.6566 N   0  0  0  0  0  0  0  0  0  0  0  0
   -8.5153    3.9776  -11.2389 C   0  0  0  0  0  0  0  0  0  0  0  0
   -8.4815    4.2784  -12.6065 C   0  0  0  0  0  0  0  0  0  0  0  0
  1  2  1  0
  2  3  2  0
  3  4  1  0
  4  5  2  0
  5  6  1  0
  5  7  1  0
  7  8  1  0
  7  9  2  0
  9 10  1  0
 10 11  1  0
 11 12  2  0
 11 13  1  0
 13 14  1  0
 14 15  2  0
 15 16  1  0
 16 17  1  0
 17 18  2  0
 18 19  1  0
 19 20  1  0
 20 21  1  0
 21 22  2  0
 21 23  1  0
 23 24  1  0
 24 25  1  0
 24 26  1  0
 24 27  1  0
 18 28  1  0
 28 29  2  0
 29 30  1  0
  9  2  1  0
 30 13  2  0
 29 16  1  0
M  END
>  <name>  (993) 
P126457

>  <alias>  (993) 
None

>  <smina_score_min>  (993) 
-5.874

>  <exports>  (993) 
['/opt/xchem-fragalysis-2/maxwin/BulkDock/OUTPUTS/openbind_xx01zvns2b_c2_elabs_1LOUTNY.sdf', '/opt/xchem-fragalysis-2/maxwin/BulkDock/OUTPUTS/openbind_xx01zvns2b_c2_elabs_1LSYIIV.sdf']

>  <tags>  (993) 
syndirella_placed,openbind_xx01zvns2b_c2_elabs,openbind_xx01zvns2b_c2_elabs_scored_6.2plus,syndirella_product,openbind_xx01zvns2b_c2_elabs_scored,openbind_xx01zvns2b_c2_elabs_scored_top80percent,BulkDock Fragalysis export

>  <subsites>  (993) 
1 - Z4590/B/203/1

>  <smiles>  (993) 
Cc1cnc(Cl)c(Br)c1NC(=O)c1ccn2cc(CNC(=O)OC(C)(C)C)nc2c1

>  <HIPPO Pose ID>  (993) 
126457

>  <energy_score>  (993) 
-12.590629

>  <inchikey>  (993) 
PVEOGHZKRDXOHJ-UHFFFAOYSA-N

>  <gnina_score_min>  (993) 
6.496

>  <gnina_score>  (993) 
6.431

>  <ref_mols>  (993) 
Z1495a

>  <HIPPO Compound ID>  (993) 
188825

>  <distance_score>  (993) 
0.587466

>  <rmsd(smina/fragmenstein)>  (993) 
0.602

>  <ref_pdb>  (993) 
Z1495a

>  <inspiration_score>  (993) 
None

$$$$
P126463
     RDKit          3D

 30 34  0  0  0  0  0  0  0  0999 V2000
  -11.1052    2.3024   -5.0026 C   0  0  0  0  0  0  0  0  0  0  0  0
  -10.2015    2.2618   -6.1111 N   0  0  0  0  0  0  0  0  0  0  0  0
   -9.5054    3.3083   -6.6255 C   0  0  0  0  0  0  0  0  0  0  0  0
   -8.9692    2.8217   -7.7924 C   0  0  0  0  0  0  0  0  0  0  0  0
   -8.3905    3.5661   -8.8796 C   0  0  0  0  0  0  0  0  0  0  0  0
   -8.1332    4.9168   -8.9034 C   0  0  0  0  0  0  0  0  0  0  0  0
   -8.0425    5.2199  -10.2313 N   0  0  0  0  0  0  0  0  0  0  0  0
   -7.9538    6.4682  -10.8373 C   0  0  0  0  0  0  0  0  0  0  0  0
   -7.9853    6.5394  -12.1775 C   0  0  0  0  0  0  0  0  0  0  0  0
   -8.1019    5.3022  -12.9418 C   0  0  0  0  0  0  0  0  0  0  0  0
   -8.2122    5.3676  -14.4201 C   0  0  0  0  0  0  0  0  0  0  0  0
   -9.1449    5.8114  -14.9565 O   0  0  0  0  0  0  0  0  0  0  0  0
   -6.8783    4.8491  -14.9978 N   0  0  0  0  0  0  0  0  0  0  0  0
   -6.3922    4.8568  -16.3098 C   0  0  0  0  0  0  0  0  0  0  0  0
   -7.2191    4.6707  -17.4213 C   0  0  0  0  0  0  0  0  0  0  0  0
   -8.5737    4.2189  -17.3757 C   0  0  0  0  0  0  0  0  0  0  0  0
   -9.6439    3.7779  -17.4347 N   0  0  0  0  0  0  0  0  0  0  0  0
   -6.6285    4.7777  -18.6666 C   0  0  0  0  0  0  0  0  0  0  0  0
   -5.3194    5.0596  -18.8739 N   0  0  0  0  0  0  0  0  0  0  0  0
   -4.5296    5.2089  -17.8105 C   0  0  0  0  0  0  0  0  0  0  0  0
   -3.1909    5.4969  -18.0394 C   0  0  0  0  0  0  0  0  0  0  0  0
   -2.2869    5.6878  -16.9951 C   0  0  0  0  0  0  0  0  0  0  0  0
   -2.7259    5.5835  -15.6852 C   0  0  0  0  0  0  0  0  0  0  0  0
   -4.0672    5.2973  -15.4319 C   0  0  0  0  0  0  0  0  0  0  0  0
   -4.9997    5.1015  -16.4871 C   0  0  0  0  0  0  0  0  0  0  0  0
   -8.1536    4.0928  -12.3506 C   0  0  0  0  0  0  0  0  0  0  0  0
   -8.1362    4.0234  -10.9335 C   0  0  0  0  0  0  0  0  0  0  0  0
   -8.2780    3.0054  -10.1215 N   0  0  0  0  0  0  0  0  0  0  0  0
   -9.2818    1.4607   -7.8122 C   0  0  0  0  0  0  0  0  0  0  0  0
  -10.0526    1.1132   -6.7804 N   0  0  0  0  0  0  0  0  0  0  0  0
  1  2  1  0
  2  3  1  0
  3  4  2  0
  4  5  1  0
  5  6  2  0
  6  7  1  0
  7  8  1  0
  8  9  2  0
  9 10  1  0
 10 11  1  0
 11 12  2  0
 11 13  1  0
 13 14  1  0
 14 15  2  0
 15 16  1  0
 16 17  3  0
 15 18  1  0
 18 19  2  0
 19 20  1  0
 20 21  2  0
 21 22  1  0
 22 23  2  0
 23 24  1  0
 24 25  2  0
 10 26  2  0
 26 27  1  0
 27 28  2  0
  4 29  1  0
 29 30  2  0
 30  2  1  0
 28  5  1  0
 27  7  1  0
 25 14  1  0
 25 20  1  0
M  END
>  <name>  (994) 
P126463

>  <alias>  (994) 
None

>  <smina_score_min>  (994) 
-8.945

>  <exports>  (994) 
['/opt/xchem-fragalysis-2/maxwin/BulkDock/OUTPUTS/openbind_xx01zvns2b_c2_elabs_1LOUTNY.sdf', '/opt/xchem-fragalysis-2/maxwin/BulkDock/OUTPUTS/openbind_xx01zvns2b_c2_elabs_1LSYIIV.sdf']

>  <tags>  (994) 
syndirella_placed,openbind_xx01zvns2b_c2_elabs,openbind_xx01zvns2b_c2_elabs_scored_6.2plus,syndirella_product,openbind_xx01zvns2b_c2_elabs_scored,openbind_xx01zvns2b_c2_elabs_scored_top80percent,BulkDock Fragalysis export

>  <subsites>  (994) 
1 - Z4590/B/203/1

>  <smiles>  (994) 
Cn1cc(-c2cn3ccc(C(=O)Nc4c(C#N)cnc5ccccc45)cc3n2)cn1

>  <HIPPO Pose ID>  (994) 
126463

>  <energy_score>  (994) 
-20.082492

>  <inchikey>  (994) 
QCOQRZNXNTYKOH-UHFFFAOYSA-N

>  <gnina_score_min>  (994) 
6.273

>  <gnina_score>  (994) 
6.089

>  <ref_mols>  (994) 
Z1495a

>  <HIPPO Compound ID>  (994) 
188837

>  <distance_score>  (994) 
0.662

>  <rmsd(smina/fragmenstein)>  (994) 
0.454

>  <ref_pdb>  (994) 
Z1495a

>  <inspiration_score>  (994) 
None

$$$$
P126481
     RDKit          3D

 30 33  0  0  0  0  0  0  0  0999 V2000
   -0.8732    6.0929  -17.0680 C   0  0  0  0  0  0  0  0  0  0  0  0
   -2.3160    5.7238  -16.8546 C   0  0  0  0  0  0  0  0  0  0  0  0
   -2.7925    5.5865  -15.5534 C   0  0  0  0  0  0  0  0  0  0  0  0
   -4.1347    5.2871  -15.3229 C   0  0  0  0  0  0  0  0  0  0  0  0
   -5.0576    5.1077  -16.3845 C   0  0  0  0  0  0  0  0  0  0  0  0
   -6.4498    4.8552  -16.1933 C   0  0  0  0  0  0  0  0  0  0  0  0
   -6.9438    4.7962  -14.8792 N   0  0  0  0  0  0  0  0  0  0  0  0
   -8.2379    5.3815  -14.2651 C   0  0  0  0  0  0  0  0  0  0  0  0
   -9.1300    5.9362  -14.7703 O   0  0  0  0  0  0  0  0  0  0  0  0
   -8.1669    5.1968  -12.7862 C   0  0  0  0  0  0  0  0  0  0  0  0
   -8.1640    6.3626  -11.9053 C   0  0  0  0  0  0  0  0  0  0  0  0
   -8.2085    6.1719  -10.5747 C   0  0  0  0  0  0  0  0  0  0  0  0
   -8.2609    4.8703  -10.0808 N   0  0  0  0  0  0  0  0  0  0  0  0
   -8.3520    4.4284   -8.7879 C   0  0  0  0  0  0  0  0  0  0  0  0
   -8.4222    3.0443   -8.8587 C   0  0  0  0  0  0  0  0  0  0  0  0
   -8.5870    2.0587   -7.7392 C   0  0  0  0  0  0  0  0  0  0  0  0
   -7.6591    1.0777   -7.7758 F   0  0  0  0  0  0  0  0  0  0  0  0
   -9.8124    1.4723   -7.7284 F   0  0  0  0  0  0  0  0  0  0  0  0
   -8.4587    2.6777   -6.5289 F   0  0  0  0  0  0  0  0  0  0  0  0
   -8.3081    2.6466  -10.1818 N   0  0  0  0  0  0  0  0  0  0  0  0
   -8.2450    3.7445  -10.8919 C   0  0  0  0  0  0  0  0  0  0  0  0
   -8.1975    3.9410  -12.2976 C   0  0  0  0  0  0  0  0  0  0  0  0
   -7.2898    4.6871  -17.2979 C   0  0  0  0  0  0  0  0  0  0  0  0
   -8.6469    4.2503  -17.2389 C   0  0  0  0  0  0  0  0  0  0  0  0
   -9.7275    3.8347  -17.2785 N   0  0  0  0  0  0  0  0  0  0  0  0
   -6.7189    4.8103  -18.5464 C   0  0  0  0  0  0  0  0  0  0  0  0
   -5.4147    5.0944  -18.7561 N   0  0  0  0  0  0  0  0  0  0  0  0
   -4.5843    5.2391  -17.7089 C   0  0  0  0  0  0  0  0  0  0  0  0
   -3.2238    5.5445  -17.9162 C   0  0  0  0  0  0  0  0  0  0  0  0
   -2.5965    5.7469  -19.7193 Br  0  0  0  0  0  0  0  0  0  0  0  0
  1  2  1  0
  2  3  2  0
  3  4  1  0
  4  5  2  0
  5  6  1  0
  6  7  1  0
  7  8  1  0
  8  9  2  0
  8 10  1  0
 10 11  1  0
 11 12  2  0
 12 13  1  0
 13 14  1  0
 14 15  2  0
 15 16  1  0
 16 17  1  0
 16 18  1  0
 16 19  1  0
 15 20  1  0
 20 21  2  0
 21 22  1  0
  6 23  2  0
 23 24  1  0
 24 25  3  0
 23 26  1  0
 26 27  2  0
 27 28  1  0
 28 29  2  0
 29 30  1  0
 29  2  1  0
 28  5  1  0
 22 10  2  0
 21 13  1  0
M  END
>  <name>  (995) 
P126481

>  <alias>  (995) 
None

>  <smina_score_min>  (995) 
-8.348

>  <exports>  (995) 
['/opt/xchem-fragalysis-2/maxwin/BulkDock/OUTPUTS/openbind_xx01zvns2b_c2_elabs_1LOUTNY.sdf', '/opt/xchem-fragalysis-2/maxwin/BulkDock/OUTPUTS/openbind_xx01zvns2b_c2_elabs_1LSYIIV.sdf']

>  <tags>  (995) 
syndirella_placed,openbind_xx01zvns2b_c2_elabs,openbind_xx01zvns2b_c2_elabs_scored_6.2plus,syndirella_product,openbind_xx01zvns2b_c2_elabs_scored,openbind_xx01zvns2b_c2_elabs_scored_top80percent,BulkDock Fragalysis export

>  <subsites>  (995) 
1 - Z4590/B/203/1

>  <smiles>  (995) 
Cc1ccc2c(NC(=O)c3ccn4cc(C(F)(F)F)nc4c3)c(C#N)cnc2c1Br

>  <HIPPO Pose ID>  (995) 
126481

>  <energy_score>  (995) 
-24.903483

>  <inchikey>  (995) 
FEBKXUSOGNFYQH-UHFFFAOYSA-N

>  <gnina_score_min>  (995) 
6.345

>  <gnina_score>  (995) 
6.196

>  <ref_mols>  (995) 
Z1495a

>  <HIPPO Compound ID>  (995) 
188866

>  <distance_score>  (995) 
0.472597

>  <rmsd(smina/fragmenstein)>  (995) 
0.435

>  <ref_pdb>  (995) 
Z1495a

>  <inspiration_score>  (995) 
None

$$$$
P126488
     RDKit          3D

 30 35  0  0  0  0  0  0  0  0999 V2000
   -9.1165    6.1725  -14.0681 O   0  0  0  0  0  0  0  0  0  0  0  0
   -8.2714    5.5676  -13.5365 C   0  0  0  0  0  0  0  0  0  0  0  0
   -6.9836    4.9270  -14.1089 N   0  0  0  0  0  0  0  0  0  0  0  0
   -6.5338    4.8206  -15.4203 C   0  0  0  0  0  0  0  0  0  0  0  0
   -7.4343    4.6330  -16.4724 C   0  0  0  0  0  0  0  0  0  0  0  0
   -6.8979    4.7617  -17.7416 C   0  0  0  0  0  0  0  0  0  0  0  0
   -5.5982    5.0388  -18.0056 N   0  0  0  0  0  0  0  0  0  0  0  0
   -4.7432    5.1249  -16.9971 C   0  0  0  0  0  0  0  0  0  0  0  0
   -3.4252    5.3844  -17.3452 C   0  0  0  0  0  0  0  0  0  0  0  0
   -2.4227    5.5257  -16.3937 C   0  0  0  0  0  0  0  0  0  0  0  0
   -2.7430    5.3780  -15.0567 C   0  0  0  0  0  0  0  0  0  0  0  0
   -4.0673    5.1169  -14.6831 C   0  0  0  0  0  0  0  0  0  0  0  0
   -4.3121    4.9241  -12.9734 Cl  0  0  0  0  0  0  0  0  0  0  0  0
   -5.1228    4.9996  -15.6492 C   0  0  0  0  0  0  0  0  0  0  0  0
   -7.7804    4.7747  -18.9327 C   0  0  0  0  0  0  0  0  0  0  0  0
   -9.1002    4.0577  -18.7915 C   0  0  0  0  0  0  0  0  0  0  0  0
   -9.7810    4.3618  -17.4843 C   0  0  0  0  0  0  0  0  0  0  0  0
   -8.8398    4.0908  -16.3186 C   0  0  0  0  0  0  0  0  0  0  0  0
   -8.2239    5.3698  -12.0741 C   0  0  0  0  0  0  0  0  0  0  0  0
   -7.9912    6.5284  -11.2266 C   0  0  0  0  0  0  0  0  0  0  0  0
   -7.9310    6.3426   -9.9011 C   0  0  0  0  0  0  0  0  0  0  0  0
   -8.1134    5.0602   -9.3957 N   0  0  0  0  0  0  0  0  0  0  0  0
   -8.1234    4.6541   -8.0952 C   0  0  0  0  0  0  0  0  0  0  0  0
   -8.4442    3.3197   -8.1456 C   0  0  0  0  0  0  0  0  0  0  0  0
   -8.7076    2.4659   -6.8875 C   0  0  0  0  0  0  0  0  0  0  0  0
   -9.5009    3.0989   -5.7610 C   0  0  0  0  0  0  0  0  0  0  0  0
  -10.1051    2.0120   -6.5918 C   0  0  0  0  0  0  0  0  0  0  0  0
   -8.5586    2.8726   -9.4308 N   0  0  0  0  0  0  0  0  0  0  0  0
   -8.3567    3.9352  -10.1778 C   0  0  0  0  0  0  0  0  0  0  0  0
   -8.3866    4.1230  -11.5857 C   0  0  0  0  0  0  0  0  0  0  0  0
  1  2  2  0
  2  3  1  0
  3  4  1  0
  4  5  2  0
  5  6  1  0
  6  7  2  0
  7  8  1  0
  8  9  2  0
  9 10  1  0
 10 11  2  0
 11 12  1  0
 12 13  1  0
 12 14  2  0
  6 15  1  0
 15 16  1  0
 16 17  1  0
 17 18  1  0
  2 19  1  0
 19 20  1  0
 20 21  2  0
 21 22  1  0
 22 23  1  0
 23 24  2  0
 24 25  1  0
 25 26  1  0
 26 27  1  0
 24 28  1  0
 28 29  2  0
 29 30  1  0
 14  4  1  0
 30 19  2  0
 18  5  1  0
 29 22  1  0
 14  8  1  0
 27 25  1  0
M  END
>  <name>  (996) 
P126488

>  <alias>  (996) 
None

>  <smina_score_min>  (996) 
-8.552

>  <exports>  (996) 
['/opt/xchem-fragalysis-2/maxwin/BulkDock/OUTPUTS/openbind_xx01zvns2b_c2_elabs_1LOUTNY.sdf', '/opt/xchem-fragalysis-2/maxwin/BulkDock/OUTPUTS/openbind_xx01zvns2b_c2_elabs_1LSYIIV.sdf']

>  <tags>  (996) 
syndirella_placed,openbind_xx01zvns2b_c2_elabs,openbind_xx01zvns2b_c2_elabs_scored_6.2plus,syndirella_product,openbind_xx01zvns2b_c2_elabs_scored,openbind_xx01zvns2b_c2_elabs_scored_top80percent,BulkDock Fragalysis export

>  <subsites>  (996) 
1 - Z4590/B/203/1

>  <smiles>  (996) 
O=C(Nc1c2c(nc3cccc(Cl)c13)CCCC2)c1ccn2cc(C3CC3)nc2c1

>  <HIPPO Pose ID>  (996) 
126488

>  <energy_score>  (996) 
-44.173266

>  <inchikey>  (996) 
LBPGTKAPAQDSEL-UHFFFAOYSA-N

>  <gnina_score_min>  (996) 
6.431

>  <gnina_score>  (996) 
6.343

>  <ref_mols>  (996) 
Z1495a

>  <HIPPO Compound ID>  (996) 
188878

>  <distance_score>  (996) 
0.893441

>  <rmsd(smina/fragmenstein)>  (996) 
0.48

>  <ref_pdb>  (996) 
Z1495a

>  <inspiration_score>  (996) 
None

$$$$
P126493
     RDKit          3D

 30 34  0  0  0  0  0  0  0  0999 V2000
  -10.3866    4.1951  -17.5810 C   0  0  0  0  0  0  0  0  0  0  0  0
   -8.9661    3.8770  -17.6019 N   0  0  0  0  0  0  0  0  0  0  0  0
   -8.3872    4.2040  -18.9033 C   0  0  0  0  0  0  0  0  0  0  0  0
   -7.2108    5.1627  -18.9237 C   0  0  0  0  0  0  0  0  0  0  0  0
   -6.3038    4.9969  -17.7633 C   0  0  0  0  0  0  0  0  0  0  0  0
   -4.9914    5.2469  -17.9791 N   0  0  0  0  0  0  0  0  0  0  0  0
   -4.1858    5.2975  -16.9204 C   0  0  0  0  0  0  0  0  0  0  0  0
   -2.8438    5.5716  -17.1447 C   0  0  0  0  0  0  0  0  0  0  0  0
   -1.9337    5.7148  -16.0967 C   0  0  0  0  0  0  0  0  0  0  0  0
   -2.3657    5.5615  -14.7888 C   0  0  0  0  0  0  0  0  0  0  0  0
   -3.7088    5.2828  -14.5393 C   0  0  0  0  0  0  0  0  0  0  0  0
   -4.6466    5.1474  -15.5971 C   0  0  0  0  0  0  0  0  0  0  0  0
   -6.0385    4.9460  -15.4170 C   0  0  0  0  0  0  0  0  0  0  0  0
   -6.5587    4.9671  -14.1183 N   0  0  0  0  0  0  0  0  0  0  0  0
   -7.8804    5.5740  -13.5705 C   0  0  0  0  0  0  0  0  0  0  0  0
   -8.7712    6.0804  -14.1323 O   0  0  0  0  0  0  0  0  0  0  0  0
   -7.9207    5.3199  -12.1210 C   0  0  0  0  0  0  0  0  0  0  0  0
   -8.1798    4.0396  -11.7901 C   0  0  0  0  0  0  0  0  0  0  0  0
   -8.3399    3.7114  -10.4254 C   0  0  0  0  0  0  0  0  0  0  0  0
   -8.6021    2.5677   -9.8489 N   0  0  0  0  0  0  0  0  0  0  0  0
   -8.7252    2.8519   -8.5110 C   0  0  0  0  0  0  0  0  0  0  0  0
   -9.1136    1.8612   -7.5331 C   0  0  0  0  0  0  0  0  0  0  0  0
   -9.3526    2.1410   -6.3622 O   0  0  0  0  0  0  0  0  0  0  0  0
   -8.4725    4.1895   -8.2733 C   0  0  0  0  0  0  0  0  0  0  0  0
   -8.2458    4.7414   -9.5008 N   0  0  0  0  0  0  0  0  0  0  0  0
   -7.9768    6.0631   -9.8394 C   0  0  0  0  0  0  0  0  0  0  0  0
   -7.8060    6.3864  -11.1336 C   0  0  0  0  0  0  0  0  0  0  0  0
   -7.4111    8.1314  -11.6554 Br  0  0  0  0  0  0  0  0  0  0  0  0
   -6.8735    4.7917  -16.5221 C   0  0  0  0  0  0  0  0  0  0  0  0
   -8.3400    4.5043  -16.4394 C   0  0  0  0  0  0  0  0  0  0  0  0
  1  2  1  0
  2  3  1  0
  3  4  1  0
  4  5  1  0
  5  6  2  0
  6  7  1  0
  7  8  2  0
  8  9  1  0
  9 10  2  0
 10 11  1  0
 11 12  2  0
 12 13  1  0
 13 14  1  0
 14 15  1  0
 15 16  2  0
 15 17  1  0
 17 18  2  0
 18 19  1  0
 19 20  2  0
 20 21  1  0
 21 22  1  0
 22 23  2  0
 21 24  2  0
 24 25  1  0
 25 26  1  0
 26 27  2  0
 27 28  1  0
 13 29  2  0
 29 30  1  0
 30  2  1  0
 29  5  1  0
 12  7  1  0
 27 17  1  0
 25 19  1  0
M  END
>  <name>  (997) 
P126493

>  <alias>  (997) 
None

>  <smina_score_min>  (997) 
-7.387

>  <exports>  (997) 
['/opt/xchem-fragalysis-2/maxwin/BulkDock/OUTPUTS/openbind_xx01zvns2b_c2_elabs_1LOUTNY.sdf', '/opt/xchem-fragalysis-2/maxwin/BulkDock/OUTPUTS/openbind_xx01zvns2b_c2_elabs_1LSYIIV.sdf']

>  <tags>  (997) 
syndirella_placed,openbind_xx01zvns2b_c2_elabs,openbind_xx01zvns2b_c2_elabs_scored_6.2plus,syndirella_product,openbind_xx01zvns2b_c2_elabs_scored,openbind_xx01zvns2b_c2_elabs_scored_top80percent,BulkDock Fragalysis export

>  <subsites>  (997) 
1 - Z4590/B/203/1

>  <smiles>  (997) 
CN1CCc2nc3ccccc3c(NC(=O)c3cc4nc(C=O)cn4cc3Br)c2C1

>  <HIPPO Pose ID>  (997) 
126493

>  <energy_score>  (997) 
-29.285547

>  <inchikey>  (997) 
NKSKTMTXGRPXBE-UHFFFAOYSA-N

>  <gnina_score_min>  (997) 
6.351

>  <gnina_score>  (997) 
6.311

>  <ref_mols>  (997) 
Z1495a

>  <HIPPO Compound ID>  (997) 
188885

>  <distance_score>  (997) 
0.97088

>  <rmsd(smina/fragmenstein)>  (997) 
0.444

>  <ref_pdb>  (997) 
Z1495a

>  <inspiration_score>  (997) 
None

$$$$
P126494
     RDKit          3D

 30 34  0  0  0  0  0  0  0  0999 V2000
   -9.3645    2.0135   -6.7203 O   0  0  0  0  0  0  0  0  0  0  0  0
   -9.0851    1.8590   -7.9066 C   0  0  0  0  0  0  0  0  0  0  0  0
   -8.6601    2.9439   -8.7693 C   0  0  0  0  0  0  0  0  0  0  0  0
   -8.4113    4.2467   -8.3822 C   0  0  0  0  0  0  0  0  0  0  0  0
   -8.0559    4.9087   -9.5224 N   0  0  0  0  0  0  0  0  0  0  0  0
   -7.6628    6.2282   -9.6885 C   0  0  0  0  0  0  0  0  0  0  0  0
   -7.3084    6.6689  -10.9102 C   0  0  0  0  0  0  0  0  0  0  0  0
   -6.6432    8.4048  -11.1107 Br  0  0  0  0  0  0  0  0  0  0  0  0
   -7.3885    5.7395  -12.0469 C   0  0  0  0  0  0  0  0  0  0  0  0
   -7.2031    6.2314  -13.4634 C   0  0  0  0  0  0  0  0  0  0  0  0
   -7.7234    7.2117  -13.8282 O   0  0  0  0  0  0  0  0  0  0  0  0
   -6.3575    5.1917  -14.2448 N   0  0  0  0  0  0  0  0  0  0  0  0
   -6.0688    5.0983  -15.6063 C   0  0  0  0  0  0  0  0  0  0  0  0
   -4.7199    5.2620  -15.9599 C   0  0  0  0  0  0  0  0  0  0  0  0
   -4.3970    5.1670  -17.3065 C   0  0  0  0  0  0  0  0  0  0  0  0
   -5.3095    4.8863  -18.2536 N   0  0  0  0  0  0  0  0  0  0  0  0
   -6.5917    4.7145  -17.9009 C   0  0  0  0  0  0  0  0  0  0  0  0
   -7.4592    4.4327  -18.9311 C   0  0  0  0  0  0  0  0  0  0  0  0
   -8.8263    4.2837  -18.7487 C   0  0  0  0  0  0  0  0  0  0  0  0
   -9.3477    4.3533  -17.4824 C   0  0  0  0  0  0  0  0  0  0  0  0
   -8.4875    4.6033  -16.4148 C   0  0  0  0  0  0  0  0  0  0  0  0
   -9.2808    4.7211  -14.9028 Cl  0  0  0  0  0  0  0  0  0  0  0  0
   -7.0777    4.8139  -16.5858 C   0  0  0  0  0  0  0  0  0  0  0  0
   -2.9808    5.3191  -17.7937 C   0  0  0  0  0  0  0  0  0  0  0  0
   -2.1098    6.1252  -16.8370 C   0  0  0  0  0  0  0  0  0  0  0  0
   -2.2435    5.5745  -15.4253 C   0  0  0  0  0  0  0  0  0  0  0  0
   -3.6852    5.6630  -14.9339 C   0  0  0  0  0  0  0  0  0  0  0  0
   -7.7984    4.4599  -11.8588 C   0  0  0  0  0  0  0  0  0  0  0  0
   -8.1118    3.9922  -10.5567 C   0  0  0  0  0  0  0  0  0  0  0  0
   -8.4604    2.8035  -10.1266 N   0  0  0  0  0  0  0  0  0  0  0  0
  1  2  2  0
  2  3  1  0
  3  4  2  0
  4  5  1  0
  5  6  1  0
  6  7  2  0
  7  8  1  0
  7  9  1  0
  9 10  1  0
 10 11  2  0
 10 12  1  0
 12 13  1  0
 13 14  2  0
 14 15  1  0
 15 16  2  0
 16 17  1  0
 17 18  2  0
 18 19  1  0
 19 20  2  0
 20 21  1  0
 21 22  1  0
 21 23  2  0
 15 24  1  0
 24 25  1  0
 25 26  1  0
 26 27  1  0
  9 28  2  0
 28 29  1  0
 29 30  2  0
 30  3  1  0
 29  5  1  0
 23 13  1  0
 27 14  1  0
 23 17  1  0
M  END
>  <name>  (998) 
P126494

>  <alias>  (998) 
None

>  <smina_score_min>  (998) 
-7.915

>  <exports>  (998) 
['/opt/xchem-fragalysis-2/maxwin/BulkDock/OUTPUTS/openbind_xx01zvns2b_c2_elabs_1LOUTNY.sdf', '/opt/xchem-fragalysis-2/maxwin/BulkDock/OUTPUTS/openbind_xx01zvns2b_c2_elabs_1LSYIIV.sdf']

>  <tags>  (998) 
syndirella_placed,openbind_xx01zvns2b_c2_elabs,openbind_xx01zvns2b_c2_elabs_scored_6.2plus,syndirella_product,openbind_xx01zvns2b_c2_elabs_scored,openbind_xx01zvns2b_c2_elabs_scored_top80percent,BulkDock Fragalysis export

>  <subsites>  (998) 
1 - Z4590/B/203/1

>  <smiles>  (998) 
O=Cc1cn2cc(Br)c(C(=O)Nc3c4c(nc5cccc(Cl)c35)CCCC4)cc2n1

>  <HIPPO Pose ID>  (998) 
126494

>  <energy_score>  (998) 
-26.317527

>  <inchikey>  (998) 
BATWHEAVBRVSTP-UHFFFAOYSA-N

>  <gnina_score_min>  (998) 
6.367

>  <gnina_score>  (998) 
6.404

>  <ref_mols>  (998) 
Z1495a

>  <HIPPO Compound ID>  (998) 
188886

>  <distance_score>  (998) 
1.013305

>  <rmsd(smina/fragmenstein)>  (998) 
0.531

>  <ref_pdb>  (998) 
Z1495a

>  <inspiration_score>  (998) 
None

$$$$
P126737
     RDKit          3D

 29 32  0  0  0  0  0  0  0  0999 V2000
  -10.4822    2.5773   -5.3990 C   0  0  0  0  0  0  0  0  0  0  0  0
   -9.7653    1.8529   -6.5230 C   0  0  0  0  0  0  0  0  0  0  0  0
   -9.6627    2.6914   -7.6954 N   0  0  0  0  0  0  0  0  0  0  0  0
   -8.7922    3.8719   -7.5571 C   0  0  0  0  0  0  0  0  0  0  0  0
   -8.4300    4.1819   -8.9747 C   0  0  0  0  0  0  0  0  0  0  0  0
   -8.0034    5.3612   -9.5493 C   0  0  0  0  0  0  0  0  0  0  0  0
   -7.8399    5.3852  -10.9367 C   0  0  0  0  0  0  0  0  0  0  0  0
   -8.0728    4.2342  -11.7096 C   0  0  0  0  0  0  0  0  0  0  0  0
   -7.9784    4.2577  -13.0931 N   0  0  0  0  0  0  0  0  0  0  0  0
   -7.7219    5.4310  -14.0596 C   0  0  0  0  0  0  0  0  0  0  0  0
   -7.6259    6.5739  -13.8518 O   0  0  0  0  0  0  0  0  0  0  0  0
   -7.7019    4.9432  -15.4515 C   0  0  0  0  0  0  0  0  0  0  0  0
   -8.8723    4.3016  -15.9153 C   0  0  0  0  0  0  0  0  0  0  0  0
   -9.0005    3.8799  -17.2470 C   0  0  0  0  0  0  0  0  0  0  0  0
   -7.9587    4.0775  -18.1417 C   0  0  0  0  0  0  0  0  0  0  0  0
   -6.8188    4.6838  -17.6542 C   0  0  0  0  0  0  0  0  0  0  0  0
   -5.6725    4.9759  -18.3750 N   0  0  0  0  0  0  0  0  0  0  0  0
   -4.7487    5.5894  -17.5339 C   0  0  0  0  0  0  0  0  0  0  0  0
   -3.6372    5.9689  -17.8673 O   0  0  0  0  0  0  0  0  0  0  0  0
   -5.3571    5.6997  -16.2591 N   0  0  0  0  0  0  0  0  0  0  0  0
   -4.8018    6.5432  -15.2226 C   0  0  0  0  0  0  0  0  0  0  0  0
   -3.8065    5.8904  -14.2264 C   0  0  0  0  0  0  0  0  0  0  0  0
   -3.2203    7.0083  -13.3374 C   0  0  0  0  0  0  0  0  0  0  0  0
   -4.5042    4.8803  -13.3088 C   0  0  0  0  0  0  0  0  0  0  0  0
   -2.6408    5.2038  -14.9520 C   0  0  0  0  0  0  0  0  0  0  0  0
   -6.6546    5.1279  -16.3347 C   0  0  0  0  0  0  0  0  0  0  0  0
   -8.4544    3.0365  -11.1096 C   0  0  0  0  0  0  0  0  0  0  0  0
   -8.6527    3.0394   -9.7469 C   0  0  0  0  0  0  0  0  0  0  0  0
   -9.1674    1.9490   -8.8690 C   0  0  0  0  0  0  0  0  0  0  0  0
  1  2  1  0
  2  3  1  0
  3  4  1  0
  4  5  1  0
  5  6  2  0
  6  7  1  0
  7  8  2  0
  8  9  1  0
  9 10  1  0
 10 11  2  0
 10 12  1  0
 12 13  2  0
 13 14  1  0
 14 15  2  0
 15 16  1  0
 16 17  1  0
 17 18  1  0
 18 19  2  0
 18 20  1  0
 20 21  1  0
 21 22  1  0
 22 23  1  0
 22 24  1  0
 22 25  1  0
 20 26  1  0
  8 27  1  0
 27 28  2  0
 28 29  1  0
 29  3  1  0
 28  5  1  0
 26 12  1  0
 26 16  2  0
M  END
>  <name>  (999) 
P126737

>  <alias>  (999) 
None

>  <smina_score_min>  (999) 
-9.102

>  <exports>  (999) 
['/opt/xchem-fragalysis-2/maxwin/BulkDock/OUTPUTS/openbind_xx01zvns2b_c2_elabs_1LOUTNY.sdf', '/opt/xchem-fragalysis-2/maxwin/BulkDock/OUTPUTS/openbind_xx01zvns2b_c2_elabs_1LSYIIV.sdf']

>  <tags>  (999) 
syndirella_placed,openbind_xx01zvns2b_c2_elabs,openbind_xx01zvns2b_c2_elabs_scored_6.2plus,syndirella_product,openbind_xx01zvns2b_c2_elabs_scored,openbind_xx01zvns2b_c2_elabs_scored_top80percent,BulkDock Fragalysis export

>  <subsites>  (999) 
1 - Z4590/B/203/1

>  <smiles>  (999) 
CCN1Cc2ccc(NC(=O)c3cccc4[nH]c(=O)n(CC(C)(C)C)c34)cc2C1

>  <HIPPO Pose ID>  (999) 
126737

>  <energy_score>  (999) 
-46.979471

>  <inchikey>  (999) 
FHVUYCDXIUWSJL-UHFFFAOYSA-N

>  <gnina_score_min>  (999) 
6.275

>  <gnina_score>  (999) 
6.162

>  <ref_mols>  (999) 
Z3503a

>  <HIPPO Compound ID>  (999) 
189176

>  <distance_score>  (999) 
0.600547

>  <rmsd(smina/fragmenstein)>  (999) 
0.804

>  <ref_pdb>  (999) 
Z3503a

>  <inspiration_score>  (999) 
None

$$$$
P126747
     RDKit          3D

 29 32  0  0  0  0  0  0  0  0999 V2000
   -3.6992    7.0499  -13.1939 C   0  0  0  0  0  0  0  0  0  0  0  0
   -3.9421    6.9499  -14.7150 C   0  0  0  0  0  0  0  0  0  0  0  0
   -2.5825    7.1529  -15.4127 C   0  0  0  0  0  0  0  0  0  0  0  0
   -4.8722    8.0972  -15.1383 C   0  0  0  0  0  0  0  0  0  0  0  0
   -4.5237    5.5328  -15.0156 C   0  0  0  0  0  0  0  0  0  0  0  0
   -5.3551    5.4014  -16.1933 N   0  0  0  0  0  0  0  0  0  0  0  0
   -4.8336    5.3476  -17.5071 C   0  0  0  0  0  0  0  0  0  0  0  0
   -3.6803    5.5183  -17.8687 O   0  0  0  0  0  0  0  0  0  0  0  0
   -5.8889    4.9971  -18.3490 N   0  0  0  0  0  0  0  0  0  0  0  0
   -7.0019    4.7047  -17.5771 C   0  0  0  0  0  0  0  0  0  0  0  0
   -8.2053    4.2080  -18.0278 C   0  0  0  0  0  0  0  0  0  0  0  0
   -9.1845    3.9720  -17.0726 C   0  0  0  0  0  0  0  0  0  0  0  0
   -8.9351    4.2410  -15.7146 C   0  0  0  0  0  0  0  0  0  0  0  0
   -7.6959    4.7486  -15.2768 C   0  0  0  0  0  0  0  0  0  0  0  0
   -7.5885    5.1949  -13.8660 C   0  0  0  0  0  0  0  0  0  0  0  0
   -7.1616    6.2640  -13.6729 O   0  0  0  0  0  0  0  0  0  0  0  0
   -8.0519    4.1031  -12.8681 N   0  0  0  0  0  0  0  0  0  0  0  0
   -8.1706    4.1374  -11.4705 C   0  0  0  0  0  0  0  0  0  0  0  0
   -8.7296    3.0207  -10.8356 C   0  0  0  0  0  0  0  0  0  0  0  0
   -8.8503    3.0537   -9.4543 C   0  0  0  0  0  0  0  0  0  0  0  0
   -8.4120    4.1242   -8.6785 C   0  0  0  0  0  0  0  0  0  0  0  0
   -7.8615    5.2315   -9.2865 C   0  0  0  0  0  0  0  0  0  0  0  0
   -7.7507    5.2322  -10.6814 C   0  0  0  0  0  0  0  0  0  0  0  0
   -7.1948    6.3200  -11.2275 F   0  0  0  0  0  0  0  0  0  0  0  0
   -8.6460    3.8417   -7.2345 C   0  0  0  0  0  0  0  0  0  0  0  0
   -9.3401    2.5834   -7.2670 N   0  0  0  0  0  0  0  0  0  0  0  0
   -9.4397    2.0680   -8.5430 C   0  0  0  0  0  0  0  0  0  0  0  0
   -9.9461    1.0156   -8.8658 O   0  0  0  0  0  0  0  0  0  0  0  0
   -6.7097    4.9663  -16.2316 C   0  0  0  0  0  0  0  0  0  0  0  0
  1  2  1  0
  2  3  1  0
  2  4  1  0
  2  5  1  0
  5  6  1  0
  6  7  1  0
  7  8  2  0
  7  9  1  0
  9 10  1  0
 10 11  2  0
 11 12  1  0
 12 13  2  0
 13 14  1  0
 14 15  1  0
 15 16  2  0
 15 17  1  0
 17 18  1  0
 18 19  2  0
 19 20  1  0
 20 21  2  0
 21 22  1  0
 22 23  2  0
 23 24  1  0
 21 25  1  0
 25 26  1  0
 26 27  1  0
 27 28  2  0
 14 29  2  0
 29  6  1  0
 29 10  1  0
 23 18  1  0
 27 20  1  0
M  END
>  <name>  (1000) 
P126747

>  <alias>  (1000) 
None

>  <smina_score_min>  (1000) 
-8.152

>  <exports>  (1000) 
['/opt/xchem-fragalysis-2/maxwin/BulkDock/OUTPUTS/openbind_xx01zvns2b_c2_elabs_1LOUTNY.sdf', '/opt/xchem-fragalysis-2/maxwin/BulkDock/OUTPUTS/openbind_xx01zvns2b_c2_elabs_1LSYIIV.sdf']

>  <tags>  (1000) 
syndirella_placed,openbind_xx01zvns2b_c2_elabs,openbind_xx01zvns2b_c2_elabs_scored_6.2plus,syndirella_product,openbind_xx01zvns2b_c2_elabs_scored,openbind_xx01zvns2b_c2_elabs_scored_top80percent,BulkDock Fragalysis export

>  <subsites>  (1000) 
1 - Z4590/B/203/1

>  <smiles>  (1000) 
CC(C)(C)Cn1c(=O)[nH]c2cccc(C(=O)Nc3cc4c(cc3F)CNC4=O)c21

>  <HIPPO Pose ID>  (1000) 
126747

>  <energy_score>  (1000) 
-40.579245

>  <inchikey>  (1000) 
WHGGEIGCMZRISE-UHFFFAOYSA-N

>  <gnina_score_min>  (1000) 
6.245

>  <gnina_score>  (1000) 
6.288

>  <ref_mols>  (1000) 
Z3503a

>  <HIPPO Compound ID>  (1000) 
189181

>  <distance_score>  (1000) 
0.417302

>  <rmsd(smina/fragmenstein)>  (1000) 
0.598

>  <ref_pdb>  (1000) 
Z3503a

>  <inspiration_score>  (1000) 
None

$$$$
P126748
     RDKit          3D

 29 32  0  0  0  0  0  0  0  0999 V2000
   -9.9191    2.1768   -6.1617 C   0  0  0  0  0  0  0  0  0  0  0  0
   -9.2852    2.7426   -7.3226 N   0  0  0  0  0  0  0  0  0  0  0  0
   -9.1979    2.0161   -8.5777 C   0  0  0  0  0  0  0  0  0  0  0  0
   -8.6958    3.0602   -9.5174 C   0  0  0  0  0  0  0  0  0  0  0  0
   -8.5056    3.0010  -10.8889 C   0  0  0  0  0  0  0  0  0  0  0  0
   -8.0863    4.1631  -11.5486 C   0  0  0  0  0  0  0  0  0  0  0  0
   -7.9436    4.1364  -12.9339 N   0  0  0  0  0  0  0  0  0  0  0  0
   -7.5659    5.2600  -13.9259 C   0  0  0  0  0  0  0  0  0  0  0  0
   -7.2408    6.3632  -13.7306 O   0  0  0  0  0  0  0  0  0  0  0  0
   -7.6543    4.7959  -15.3285 C   0  0  0  0  0  0  0  0  0  0  0  0
   -8.8837    4.2617  -15.7646 C   0  0  0  0  0  0  0  0  0  0  0  0
   -9.1149    3.9636  -17.1187 C   0  0  0  0  0  0  0  0  0  0  0  0
   -8.1273    4.1969  -18.0675 C   0  0  0  0  0  0  0  0  0  0  0  0
   -6.9335    4.7160  -17.6144 C   0  0  0  0  0  0  0  0  0  0  0  0
   -5.8094    4.9979  -18.3742 N   0  0  0  0  0  0  0  0  0  0  0  0
   -4.7680    5.3674  -17.5224 C   0  0  0  0  0  0  0  0  0  0  0  0
   -3.6078    5.5287  -17.8648 O   0  0  0  0  0  0  0  0  0  0  0  0
   -5.3113    5.4501  -16.2190 N   0  0  0  0  0  0  0  0  0  0  0  0
   -4.5018    5.6059  -15.0292 C   0  0  0  0  0  0  0  0  0  0  0  0
   -3.9248    7.0282  -14.7477 C   0  0  0  0  0  0  0  0  0  0  0  0
   -2.5772    7.2387  -15.4648 C   0  0  0  0  0  0  0  0  0  0  0  0
   -4.8714    8.1638  -15.1646 C   0  0  0  0  0  0  0  0  0  0  0  0
   -3.6645    7.1393  -13.2303 C   0  0  0  0  0  0  0  0  0  0  0  0
   -6.6606    5.0063  -16.2722 C   0  0  0  0  0  0  0  0  0  0  0  0
   -7.8423    5.3474  -10.8260 C   0  0  0  0  0  0  0  0  0  0  0  0
   -8.0282    5.3969   -9.4425 C   0  0  0  0  0  0  0  0  0  0  0  0
   -8.4573    4.2436   -8.8204 C   0  0  0  0  0  0  0  0  0  0  0  0
   -8.8447    4.0447   -7.4175 C   0  0  0  0  0  0  0  0  0  0  0  0
   -8.8315    4.9118   -6.5629 O   0  0  0  0  0  0  0  0  0  0  0  0
  1  2  1  0
  2  3  1  0
  3  4  1  0
  4  5  2  0
  5  6  1  0
  6  7  1  0
  7  8  1  0
  8  9  2  0
  8 10  1  0
 10 11  2  0
 11 12  1  0
 12 13  2  0
 13 14  1  0
 14 15  1  0
 15 16  1  0
 16 17  2  0
 16 18  1  0
 18 19  1  0
 19 20  1  0
 20 21  1  0
 20 22  1  0
 20 23  1  0
 18 24  1  0
  6 25  2  0
 25 26  1  0
 26 27  2  0
 27 28  1  0
 28 29  2  0
 28  2  1  0
 27  4  1  0
 24 10  1  0
 24 14  2  0
M  END
>  <name>  (1001) 
P126748

>  <alias>  (1001) 
None

>  <smina_score_min>  (1001) 
-8.745

>  <exports>  (1001) 
['/opt/xchem-fragalysis-2/maxwin/BulkDock/OUTPUTS/openbind_xx01zvns2b_c2_elabs_1LOUTNY.sdf', '/opt/xchem-fragalysis-2/maxwin/BulkDock/OUTPUTS/openbind_xx01zvns2b_c2_elabs_1LSYIIV.sdf']

>  <tags>  (1001) 
syndirella_placed,openbind_xx01zvns2b_c2_elabs,openbind_xx01zvns2b_c2_elabs_scored_6.2plus,syndirella_product,openbind_xx01zvns2b_c2_elabs_scored,openbind_xx01zvns2b_c2_elabs_scored_top80percent,BulkDock Fragalysis export

>  <subsites>  (1001) 
1 - Z4590/B/203/1

>  <smiles>  (1001) 
CN1Cc2cc(NC(=O)c3cccc4[nH]c(=O)n(CC(C)(C)C)c34)ccc2C1=O

>  <HIPPO Pose ID>  (1001) 
126748

>  <energy_score>  (1001) 
-47.52311

>  <inchikey>  (1001) 
QAPVPSDALUVLQG-UHFFFAOYSA-N

>  <gnina_score_min>  (1001) 
6.211

>  <gnina_score>  (1001) 
6.113

>  <ref_mols>  (1001) 
Z3503a

>  <HIPPO Compound ID>  (1001) 
189182

>  <distance_score>  (1001) 
0.46796

>  <rmsd(smina/fragmenstein)>  (1001) 
0.468

>  <ref_pdb>  (1001) 
Z3503a

>  <inspiration_score>  (1001) 
None

$$$$
P126751
     RDKit          3D

 30 33  0  0  0  0  0  0  0  0999 V2000
   -9.2333    3.9045   -3.3372 C   0  0  0  0  0  0  0  0  0  0  0  0
   -8.5954    4.0467   -4.7002 C   0  0  0  0  0  0  0  0  0  0  0  0
   -9.3362    3.2963   -5.8294 C   0  0  0  0  0  0  0  0  0  0  0  0
   -8.6002    3.4813   -7.0678 N   0  0  0  0  0  0  0  0  0  0  0  0
   -8.4244    4.8764   -7.4492 C   0  0  0  0  0  0  0  0  0  0  0  0
   -8.2971    4.8470   -8.9227 C   0  0  0  0  0  0  0  0  0  0  0  0
   -7.9477    5.9026   -9.7308 C   0  0  0  0  0  0  0  0  0  0  0  0
   -7.8943    5.6681  -11.0918 C   0  0  0  0  0  0  0  0  0  0  0  0
   -8.1764    4.3979  -11.6269 C   0  0  0  0  0  0  0  0  0  0  0  0
   -8.0557    4.2452  -13.0060 N   0  0  0  0  0  0  0  0  0  0  0  0
   -7.7879    5.2930  -14.1136 C   0  0  0  0  0  0  0  0  0  0  0  0
   -7.5505    6.4343  -14.0349 O   0  0  0  0  0  0  0  0  0  0  0  0
   -7.7783    4.7093  -15.4643 C   0  0  0  0  0  0  0  0  0  0  0  0
   -8.9697    4.1199  -15.9185 C   0  0  0  0  0  0  0  0  0  0  0  0
   -9.1387    3.7794  -17.2693 C   0  0  0  0  0  0  0  0  0  0  0  0
   -8.1265    4.0221  -18.1895 C   0  0  0  0  0  0  0  0  0  0  0  0
   -6.9636    4.5842  -17.7098 C   0  0  0  0  0  0  0  0  0  0  0  0
   -5.8527    4.9532  -18.4446 N   0  0  0  0  0  0  0  0  0  0  0  0
   -4.8927    5.5004  -17.5903 C   0  0  0  0  0  0  0  0  0  0  0  0
   -3.8129    5.9105  -17.9798 O   0  0  0  0  0  0  0  0  0  0  0  0
   -5.4273    5.4661  -16.2846 N   0  0  0  0  0  0  0  0  0  0  0  0
   -4.9102    6.0828  -15.0691 C   0  0  0  0  0  0  0  0  0  0  0  0
   -3.3930    6.3279  -14.8270 C   0  0  0  0  0  0  0  0  0  0  0  0
   -3.2235    6.6187  -13.3115 C   0  0  0  0  0  0  0  0  0  0  0  0
   -2.8754    7.5761  -15.5622 C   0  0  0  0  0  0  0  0  0  0  0  0
   -2.5368    5.1003  -15.1478 C   0  0  0  0  0  0  0  0  0  0  0  0
   -6.7483    4.9194  -16.3733 C   0  0  0  0  0  0  0  0  0  0  0  0
   -8.5445    3.3329  -10.7885 C   0  0  0  0  0  0  0  0  0  0  0  0
   -8.6139    3.5812   -9.4215 C   0  0  0  0  0  0  0  0  0  0  0  0
   -9.0316    2.7120   -8.2604 C   0  0  0  0  0  0  0  0  0  0  0  0
  1  2  1  0
  2  3  1  0
  3  4  1  0
  4  5  1  0
  5  6  1  0
  6  7  2  0
  7  8  1  0
  8  9  2  0
  9 10  1  0
 10 11  1  0
 11 12  2  0
 11 13  1  0
 13 14  2  0
 14 15  1  0
 15 16  2  0
 16 17  1  0
 17 18  1  0
 18 19  1  0
 19 20  2  0
 19 21  1  0
 21 22  1  0
 22 23  1  0
 23 24  1  0
 23 25  1  0
 23 26  1  0
 21 27  1  0
  9 28  1  0
 28 29  2  0
 29 30  1  0
 30  4  1  0
 29  6  1  0
 27 13  1  0
 27 17  2  0
M  END
>  <name>  (1002) 
P126751

>  <alias>  (1002) 
None

>  <smina_score_min>  (1002) 
-9.023

>  <exports>  (1002) 
['/opt/xchem-fragalysis-2/maxwin/BulkDock/OUTPUTS/openbind_xx01zvns2b_c2_elabs_1LOUTNY.sdf', '/opt/xchem-fragalysis-2/maxwin/BulkDock/OUTPUTS/openbind_xx01zvns2b_c2_elabs_1LSYIIV.sdf']

>  <tags>  (1002) 
syndirella_placed,openbind_xx01zvns2b_c2_elabs,openbind_xx01zvns2b_c2_elabs_scored_6.2plus,syndirella_product,openbind_xx01zvns2b_c2_elabs_scored,openbind_xx01zvns2b_c2_elabs_scored_top80percent,BulkDock Fragalysis export

>  <subsites>  (1002) 
1 - Z4590/B/203/1

>  <smiles>  (1002) 
CCCN1Cc2ccc(NC(=O)c3cccc4[nH]c(=O)n(CC(C)(C)C)c34)cc2C1

>  <HIPPO Pose ID>  (1002) 
126751

>  <energy_score>  (1002) 
-45.179114

>  <inchikey>  (1002) 
BXSOTWFQDCXDPF-UHFFFAOYSA-N

>  <gnina_score_min>  (1002) 
6.345

>  <gnina_score>  (1002) 
6.355

>  <ref_mols>  (1002) 
Z3503a

>  <HIPPO Compound ID>  (1002) 
189184

>  <distance_score>  (1002) 
0.73531

>  <rmsd(smina/fragmenstein)>  (1002) 
1.254

>  <ref_pdb>  (1002) 
Z3503a

>  <inspiration_score>  (1002) 
None

$$$$
P126755
     RDKit          3D

 30 33  0  0  0  0  0  0  0  0999 V2000
  -10.2877    1.5022   -5.8986 C   0  0  0  0  0  0  0  0  0  0  0  0
   -9.9655    2.9490   -6.1164 C   0  0  0  0  0  0  0  0  0  0  0  0
   -9.2130    3.2239   -7.3170 N   0  0  0  0  0  0  0  0  0  0  0  0
   -8.4998    4.4701   -7.4211 C   0  0  0  0  0  0  0  0  0  0  0  0
   -8.2426    4.5802   -8.8749 C   0  0  0  0  0  0  0  0  0  0  0  0
   -7.7354    5.6516   -9.5727 C   0  0  0  0  0  0  0  0  0  0  0  0
   -7.6719    5.5414  -10.9581 C   0  0  0  0  0  0  0  0  0  0  0  0
   -8.0703    4.3640  -11.6235 C   0  0  0  0  0  0  0  0  0  0  0  0
   -7.9606    4.3074  -13.0078 N   0  0  0  0  0  0  0  0  0  0  0  0
   -7.6874    5.4261  -14.0401 C   0  0  0  0  0  0  0  0  0  0  0  0
   -7.4359    6.5546  -13.8834 O   0  0  0  0  0  0  0  0  0  0  0  0
   -7.7016    4.9051  -15.4196 C   0  0  0  0  0  0  0  0  0  0  0  0
   -8.8844    4.2681  -15.8507 C   0  0  0  0  0  0  0  0  0  0  0  0
   -9.0510    3.8549  -17.1820 C   0  0  0  0  0  0  0  0  0  0  0  0
   -8.0347    4.0488  -18.1062 C   0  0  0  0  0  0  0  0  0  0  0  0
   -6.8785    4.6469  -17.6502 C   0  0  0  0  0  0  0  0  0  0  0  0
   -5.7545    4.9335  -18.4072 N   0  0  0  0  0  0  0  0  0  0  0  0
   -4.8023    5.5422  -17.5973 C   0  0  0  0  0  0  0  0  0  0  0  0
   -3.6980    5.9139  -17.9632 O   0  0  0  0  0  0  0  0  0  0  0  0
   -5.3719    5.6634  -16.3049 N   0  0  0  0  0  0  0  0  0  0  0  0
   -4.7722    6.5233  -15.3074 C   0  0  0  0  0  0  0  0  0  0  0  0
   -3.7693    5.8824  -14.3122 C   0  0  0  0  0  0  0  0  0  0  0  0
   -4.4544    4.8916  -13.3653 C   0  0  0  0  0  0  0  0  0  0  0  0
   -2.6192    5.1796  -15.0466 C   0  0  0  0  0  0  0  0  0  0  0  0
   -3.1621    7.0125  -13.4530 C   0  0  0  0  0  0  0  0  0  0  0  0
   -6.6753    5.0907  -16.3352 C   0  0  0  0  0  0  0  0  0  0  0  0
   -8.5675    3.2747  -10.9074 C   0  0  0  0  0  0  0  0  0  0  0  0
   -8.6672    3.4278   -9.5354 C   0  0  0  0  0  0  0  0  0  0  0  0
   -9.3350    2.5744   -8.5434 C   0  0  0  0  0  0  0  0  0  0  0  0
   -9.9422    1.5633   -8.8323 O   0  0  0  0  0  0  0  0  0  0  0  0
  1  2  1  0
  2  3  1  0
  3  4  1  0
  4  5  1  0
  5  6  2  0
  6  7  1  0
  7  8  2  0
  8  9  1  0
  9 10  1  0
 10 11  2  0
 10 12  1  0
 12 13  2  0
 13 14  1  0
 14 15  2  0
 15 16  1  0
 16 17  1  0
 17 18  1  0
 18 19  2  0
 18 20  1  0
 20 21  1  0
 21 22  1  0
 22 23  1  0
 22 24  1  0
 22 25  1  0
 20 26  1  0
  8 27  1  0
 27 28  2  0
 28 29  1  0
 29 30  2  0
 29  3  1  0
 28  5  1  0
 26 12  1  0
 26 16  2  0
M  END
>  <name>  (1003) 
P126755

>  <alias>  (1003) 
None

>  <smina_score_min>  (1003) 
-8.456

>  <exports>  (1003) 
['/opt/xchem-fragalysis-2/maxwin/BulkDock/OUTPUTS/openbind_xx01zvns2b_c2_elabs_1LOUTNY.sdf', '/opt/xchem-fragalysis-2/maxwin/BulkDock/OUTPUTS/openbind_xx01zvns2b_c2_elabs_1LSYIIV.sdf']

>  <tags>  (1003) 
syndirella_placed,openbind_xx01zvns2b_c2_elabs,openbind_xx01zvns2b_c2_elabs_scored_6.2plus,syndirella_product,openbind_xx01zvns2b_c2_elabs_scored,openbind_xx01zvns2b_c2_elabs_scored_top80percent,BulkDock Fragalysis export

>  <subsites>  (1003) 
1 - Z4590/B/203/1

>  <smiles>  (1003) 
CCN1Cc2ccc(NC(=O)c3cccc4[nH]c(=O)n(CC(C)(C)C)c34)cc2C1=O

>  <HIPPO Pose ID>  (1003) 
126755

>  <energy_score>  (1003) 
-47.770469

>  <inchikey>  (1003) 
VSNNZIIUQPGTES-UHFFFAOYSA-N

>  <gnina_score_min>  (1003) 
6.264

>  <gnina_score>  (1003) 
6.141

>  <ref_mols>  (1003) 
Z3503a

>  <HIPPO Compound ID>  (1003) 
189193

>  <distance_score>  (1003) 
0.671018

>  <rmsd(smina/fragmenstein)>  (1003) 
0.499

>  <ref_pdb>  (1003) 
Z3503a

>  <inspiration_score>  (1003) 
None

$$$$
P126757
     RDKit          3D

 30 33  0  0  0  0  0  0  0  0999 V2000
   -9.9574    2.5224   -6.0881 C   0  0  0  0  0  0  0  0  0  0  0  0
   -8.8847    2.8856   -6.9906 N   0  0  0  0  0  0  0  0  0  0  0  0
   -9.0456    2.2684   -8.3293 C   0  0  0  0  0  0  0  0  0  0  0  0
   -8.7007    3.3394   -9.3122 C   0  0  0  0  0  0  0  0  0  0  0  0
   -8.6017    3.2469  -10.6977 C   0  0  0  0  0  0  0  0  0  0  0  0
   -8.2881    4.4024  -11.4185 C   0  0  0  0  0  0  0  0  0  0  0  0
   -8.1741    4.3396  -12.8091 N   0  0  0  0  0  0  0  0  0  0  0  0
   -7.8423    5.4450  -13.8419 C   0  0  0  0  0  0  0  0  0  0  0  0
   -7.6888    6.5936  -13.6980 O   0  0  0  0  0  0  0  0  0  0  0  0
   -7.7671    4.9030  -15.2192 C   0  0  0  0  0  0  0  0  0  0  0  0
   -8.9236    4.2587  -15.7087 C   0  0  0  0  0  0  0  0  0  0  0  0
   -9.0438    3.8690  -17.0545 C   0  0  0  0  0  0  0  0  0  0  0  0
   -8.0040    4.0945  -17.9432 C   0  0  0  0  0  0  0  0  0  0  0  0
   -6.8723    4.6956  -17.4346 C   0  0  0  0  0  0  0  0  0  0  0  0
   -5.7324    5.0203  -18.1508 N   0  0  0  0  0  0  0  0  0  0  0  0
   -4.8165    5.6289  -17.2989 C   0  0  0  0  0  0  0  0  0  0  0  0
   -3.7141    6.0326  -17.6338 O   0  0  0  0  0  0  0  0  0  0  0  0
   -5.4253    5.7037  -16.0212 N   0  0  0  0  0  0  0  0  0  0  0  0
   -4.8518    6.4909  -14.9512 C   0  0  0  0  0  0  0  0  0  0  0  0
   -3.8868    5.7707  -13.9729 C   0  0  0  0  0  0  0  0  0  0  0  0
   -3.3041    6.8299  -13.0124 C   0  0  0  0  0  0  0  0  0  0  0  0
   -2.7148    5.1143  -14.7171 C   0  0  0  0  0  0  0  0  0  0  0  0
   -4.6154    4.7213  -13.1252 C   0  0  0  0  0  0  0  0  0  0  0  0
   -6.7166    5.1131  -16.1016 C   0  0  0  0  0  0  0  0  0  0  0  0
   -8.0884    5.6158  -10.7415 C   0  0  0  0  0  0  0  0  0  0  0  0
   -8.1708    5.6887   -9.3469 C   0  0  0  0  0  0  0  0  0  0  0  0
   -8.4733    4.5388   -8.6369 C   0  0  0  0  0  0  0  0  0  0  0  0
   -8.5075    4.3086   -7.1424 C   0  0  0  0  0  0  0  0  0  0  0  0
   -9.3745    5.3003   -6.3545 C   0  0  0  0  0  0  0  0  0  0  0  0
   -7.0717    4.5143   -6.6139 C   0  0  0  0  0  0  0  0  0  0  0  0
  1  2  1  0
  2  3  1  0
  3  4  1  0
  4  5  2  0
  5  6  1  0
  6  7  1  0
  7  8  1  0
  8  9  2  0
  8 10  1  0
 10 11  2  0
 11 12  1  0
 12 13  2  0
 13 14  1  0
 14 15  1  0
 15 16  1  0
 16 17  2  0
 16 18  1  0
 18 19  1  0
 19 20  1  0
 20 21  1  0
 20 22  1  0
 20 23  1  0
 18 24  1  0
  6 25  2  0
 25 26  1  0
 26 27  2  0
 27 28  1  0
 28 29  1  0
 28 30  1  0
 28  2  1  0
 27  4  1  0
 24 10  1  0
 24 14  2  0
M  END
>  <name>  (1004) 
P126757

>  <alias>  (1004) 
None

>  <smina_score_min>  (1004) 
-8.533

>  <exports>  (1004) 
['/opt/xchem-fragalysis-2/maxwin/BulkDock/OUTPUTS/openbind_xx01zvns2b_c2_elabs_1LOUTNY.sdf', '/opt/xchem-fragalysis-2/maxwin/BulkDock/OUTPUTS/openbind_xx01zvns2b_c2_elabs_1LSYIIV.sdf']

>  <tags>  (1004) 
syndirella_placed,openbind_xx01zvns2b_c2_elabs,openbind_xx01zvns2b_c2_elabs_scored_6.2plus,syndirella_product,openbind_xx01zvns2b_c2_elabs_scored,openbind_xx01zvns2b_c2_elabs_scored_top80percent,BulkDock Fragalysis export

>  <subsites>  (1004) 
1 - Z4590/B/203/1

>  <smiles>  (1004) 
CN1Cc2cc(NC(=O)c3cccc4[nH]c(=O)n(CC(C)(C)C)c34)ccc2C1(C)C

>  <HIPPO Pose ID>  (1004) 
126757

>  <energy_score>  (1004) 
-43.437934

>  <inchikey>  (1004) 
GRQXVPFWHQWYIL-UHFFFAOYSA-N

>  <gnina_score_min>  (1004) 
6.355

>  <gnina_score>  (1004) 
6.334

>  <ref_mols>  (1004) 
Z3503a

>  <HIPPO Compound ID>  (1004) 
189195

>  <distance_score>  (1004) 
0.618484

>  <rmsd(smina/fragmenstein)>  (1004) 
0.771

>  <ref_pdb>  (1004) 
Z3503a

>  <inspiration_score>  (1004) 
None

$$$$
P126761
     RDKit          3D

 30 33  0  0  0  0  0  0  0  0999 V2000
  -10.8589    3.0517   -5.4943 C   0  0  0  0  0  0  0  0  0  0  0  0
   -9.6056    2.3929   -6.0292 C   0  0  0  0  0  0  0  0  0  0  0  0
   -9.2150    2.9409   -7.3006 N   0  0  0  0  0  0  0  0  0  0  0  0
   -9.2284    2.1568   -8.5252 C   0  0  0  0  0  0  0  0  0  0  0  0
   -8.7381    3.1460   -9.5290 C   0  0  0  0  0  0  0  0  0  0  0  0
   -8.6652    3.0554  -10.9089 C   0  0  0  0  0  0  0  0  0  0  0  0
   -8.2126    4.1776  -11.6099 C   0  0  0  0  0  0  0  0  0  0  0  0
   -8.1588    4.1532  -12.9989 N   0  0  0  0  0  0  0  0  0  0  0  0
   -7.7012    5.2307  -14.0028 C   0  0  0  0  0  0  0  0  0  0  0  0
   -7.3695    6.3364  -13.8276 O   0  0  0  0  0  0  0  0  0  0  0  0
   -7.6738    4.7439  -15.3914 C   0  0  0  0  0  0  0  0  0  0  0  0
   -8.7959    4.2281  -16.0396 C   0  0  0  0  0  0  0  0  0  0  0  0
   -8.7551    4.0044  -17.4304 C   0  0  0  0  0  0  0  0  0  0  0  0
   -7.6142    4.3199  -18.1896 C   0  0  0  0  0  0  0  0  0  0  0  0
   -6.5129    4.8167  -17.5269 C   0  0  0  0  0  0  0  0  0  0  0  0
   -6.5420    4.9828  -16.1456 C   0  0  0  0  0  0  0  0  0  0  0  0
   -5.2816    5.4040  -15.7306 N   0  0  0  0  0  0  0  0  0  0  0  0
   -4.4426    5.4890  -16.8378 C   0  0  0  0  0  0  0  0  0  0  0  0
   -3.2543    5.7544  -16.8036 O   0  0  0  0  0  0  0  0  0  0  0  0
   -5.2337    5.2156  -17.9690 N   0  0  0  0  0  0  0  0  0  0  0  0
   -4.8073    5.4420  -19.3301 C   0  0  0  0  0  0  0  0  0  0  0  0
   -4.5511    6.9416  -19.7112 C   0  0  0  0  0  0  0  0  0  0  0  0
   -3.1481    7.4298  -19.3077 C   0  0  0  0  0  0  0  0  0  0  0  0
   -5.5970    7.8613  -19.0775 C   0  0  0  0  0  0  0  0  0  0  0  0
   -4.6533    7.0901  -21.2390 C   0  0  0  0  0  0  0  0  0  0  0  0
   -7.8156    5.3465  -10.9256 C   0  0  0  0  0  0  0  0  0  0  0  0
   -7.8837    5.4284   -9.5389 C   0  0  0  0  0  0  0  0  0  0  0  0
   -8.3517    4.3184   -8.8765 C   0  0  0  0  0  0  0  0  0  0  0  0
   -8.6166    4.1713   -7.4467 C   0  0  0  0  0  0  0  0  0  0  0  0
   -8.3758    5.0137   -6.6016 O   0  0  0  0  0  0  0  0  0  0  0  0
  1  2  1  0
  2  3  1  0
  3  4  1  0
  4  5  1  0
  5  6  2  0
  6  7  1  0
  7  8  1  0
  8  9  1  0
  9 10  2  0
  9 11  1  0
 11 12  2  0
 12 13  1  0
 13 14  2  0
 14 15  1  0
 15 16  2  0
 16 17  1  0
 17 18  1  0
 18 19  2  0
 18 20  1  0
 20 21  1  0
 21 22  1  0
 22 23  1  0
 22 24  1  0
 22 25  1  0
  7 26  2  0
 26 27  1  0
 27 28  2  0
 28 29  1  0
 29 30  2  0
 29  3  1  0
 28  5  1  0
 16 11  1  0
 20 15  1  0
M  END
>  <name>  (1005) 
P126761

>  <alias>  (1005) 
None

>  <smina_score_min>  (1005) 
-9.816

>  <exports>  (1005) 
['/opt/xchem-fragalysis-2/maxwin/BulkDock/OUTPUTS/openbind_xx01zvns2b_c2_elabs_1LOUTNY.sdf', '/opt/xchem-fragalysis-2/maxwin/BulkDock/OUTPUTS/openbind_xx01zvns2b_c2_elabs_1LSYIIV.sdf']

>  <tags>  (1005) 
syndirella_placed,openbind_xx01zvns2b_c2_elabs,openbind_xx01zvns2b_c2_elabs_scored_6.2plus,syndirella_product,openbind_xx01zvns2b_c2_elabs_scored,openbind_xx01zvns2b_c2_elabs_scored_top80percent,BulkDock Fragalysis export

>  <subsites>  (1005) 
1 - Z4590/B/203/1

>  <smiles>  (1005) 
CCN1Cc2cc(NC(=O)c3cccc4c3[nH]c(=O)n4CC(C)(C)C)ccc2C1=O

>  <HIPPO Pose ID>  (1005) 
126761

>  <energy_score>  (1005) 
-34.718275

>  <inchikey>  (1005) 
MAXVGVINHJWMSA-UHFFFAOYSA-N

>  <gnina_score_min>  (1005) 
6.226

>  <gnina_score>  (1005) 
5.998

>  <ref_mols>  (1005) 
Z3503a

>  <HIPPO Compound ID>  (1005) 
189201

>  <distance_score>  (1005) 
0.546541

>  <rmsd(smina/fragmenstein)>  (1005) 
0.727

>  <ref_pdb>  (1005) 
Z3503a

>  <inspiration_score>  (1005) 
None

$$$$
P126763
     RDKit          3D

 30 33  0  0  0  0  0  0  0  0999 V2000
  -11.5402    2.5558   -5.3014 C   0  0  0  0  0  0  0  0  0  0  0  0
  -10.0921    2.9321   -5.0922 C   0  0  0  0  0  0  0  0  0  0  0  0
   -9.2239    2.3349   -6.1931 C   0  0  0  0  0  0  0  0  0  0  0  0
   -9.4375    3.0370   -7.4411 N   0  0  0  0  0  0  0  0  0  0  0  0
   -8.6137    4.2535   -7.5324 C   0  0  0  0  0  0  0  0  0  0  0  0
   -8.3926    4.4182   -8.9929 C   0  0  0  0  0  0  0  0  0  0  0  0
   -7.9653    5.5333   -9.6750 C   0  0  0  0  0  0  0  0  0  0  0  0
   -7.8798    5.4377  -11.0579 C   0  0  0  0  0  0  0  0  0  0  0  0
   -8.2125    4.2441  -11.7277 C   0  0  0  0  0  0  0  0  0  0  0  0
   -8.1444    4.2010  -13.1117 N   0  0  0  0  0  0  0  0  0  0  0  0
   -7.7258    5.2793  -14.1259 C   0  0  0  0  0  0  0  0  0  0  0  0
   -7.4450    6.4002  -13.9656 O   0  0  0  0  0  0  0  0  0  0  0  0
   -7.6692    4.7641  -15.4978 C   0  0  0  0  0  0  0  0  0  0  0  0
   -8.7806    4.2320  -16.1505 C   0  0  0  0  0  0  0  0  0  0  0  0
   -8.7161    3.9865  -17.5345 C   0  0  0  0  0  0  0  0  0  0  0  0
   -7.5646    4.2978  -18.2790 C   0  0  0  0  0  0  0  0  0  0  0  0
   -6.4763    4.8119  -17.6081 C   0  0  0  0  0  0  0  0  0  0  0  0
   -6.5251    4.9946  -16.2318 C   0  0  0  0  0  0  0  0  0  0  0  0
   -5.2733    5.4247  -15.8012 N   0  0  0  0  0  0  0  0  0  0  0  0
   -4.4199    5.5048  -16.8975 C   0  0  0  0  0  0  0  0  0  0  0  0
   -3.2350    5.7830  -16.8518 O   0  0  0  0  0  0  0  0  0  0  0  0
   -5.1945    5.2147  -18.0368 N   0  0  0  0  0  0  0  0  0  0  0  0
   -4.7635    5.4580  -19.3930 C   0  0  0  0  0  0  0  0  0  0  0  0
   -4.5328    6.9650  -19.7623 C   0  0  0  0  0  0  0  0  0  0  0  0
   -5.5860    7.8666  -19.1129 C   0  0  0  0  0  0  0  0  0  0  0  0
   -4.6482    7.1259  -21.2880 C   0  0  0  0  0  0  0  0  0  0  0  0
   -3.1329    7.4676  -19.3651 C   0  0  0  0  0  0  0  0  0  0  0  0
   -8.6123    3.1121  -11.0202 C   0  0  0  0  0  0  0  0  0  0  0  0
   -8.7034    3.2233   -9.6471 C   0  0  0  0  0  0  0  0  0  0  0  0
   -9.1256    2.2125   -8.6305 C   0  0  0  0  0  0  0  0  0  0  0  0
  1  2  1  0
  2  3  1  0
  3  4  1  0
  4  5  1  0
  5  6  1  0
  6  7  2  0
  7  8  1  0
  8  9  2  0
  9 10  1  0
 10 11  1  0
 11 12  2  0
 11 13  1  0
 13 14  2  0
 14 15  1  0
 15 16  2  0
 16 17  1  0
 17 18  2  0
 18 19  1  0
 19 20  1  0
 20 21  2  0
 20 22  1  0
 22 23  1  0
 23 24  1  0
 24 25  1  0
 24 26  1  0
 24 27  1  0
  9 28  1  0
 28 29  2  0
 29 30  1  0
 30  4  1  0
 29  6  1  0
 18 13  1  0
 22 17  1  0
M  END
>  <name>  (1006) 
P126763

>  <alias>  (1006) 
None

>  <smina_score_min>  (1006) 
-9.123

>  <exports>  (1006) 
['/opt/xchem-fragalysis-2/maxwin/BulkDock/OUTPUTS/openbind_xx01zvns2b_c2_elabs_1LOUTNY.sdf', '/opt/xchem-fragalysis-2/maxwin/BulkDock/OUTPUTS/openbind_xx01zvns2b_c2_elabs_1LSYIIV.sdf']

>  <tags>  (1006) 
syndirella_placed,openbind_xx01zvns2b_c2_elabs,openbind_xx01zvns2b_c2_elabs_scored_6.2plus,syndirella_product,openbind_xx01zvns2b_c2_elabs_scored,openbind_xx01zvns2b_c2_elabs_scored_top80percent,BulkDock Fragalysis export

>  <subsites>  (1006) 
1 - Z4590/B/203/1

>  <smiles>  (1006) 
CCCN1Cc2ccc(NC(=O)c3cccc4c3[nH]c(=O)n4CC(C)(C)C)cc2C1

>  <HIPPO Pose ID>  (1006) 
126763

>  <energy_score>  (1006) 
-27.992009

>  <inchikey>  (1006) 
PIUVDTJYXLJLBV-UHFFFAOYSA-N

>  <gnina_score_min>  (1006) 
6.212

>  <gnina_score>  (1006) 
5.971

>  <ref_mols>  (1006) 
Z3503a

>  <HIPPO Compound ID>  (1006) 
189206

>  <distance_score>  (1006) 
0.617124

>  <rmsd(smina/fragmenstein)>  (1006) 
0.759

>  <ref_pdb>  (1006) 
Z3503a

>  <inspiration_score>  (1006) 
None

$$$$
P126767
     RDKit          3D

 30 33  0  0  0  0  0  0  0  0999 V2000
  -10.8182    3.0445   -5.5162 C   0  0  0  0  0  0  0  0  0  0  0  0
   -9.5778    2.3902   -6.0875 C   0  0  0  0  0  0  0  0  0  0  0  0
   -9.2008    2.9596   -7.3535 N   0  0  0  0  0  0  0  0  0  0  0  0
   -9.1934    2.1857   -8.5852 C   0  0  0  0  0  0  0  0  0  0  0  0
   -8.6863    3.1832   -9.5723 C   0  0  0  0  0  0  0  0  0  0  0  0
   -8.5803    3.0984  -10.9497 C   0  0  0  0  0  0  0  0  0  0  0  0
   -8.1335    4.2306  -11.6426 C   0  0  0  0  0  0  0  0  0  0  0  0
   -8.0856    4.1999  -13.0323 N   0  0  0  0  0  0  0  0  0  0  0  0
   -7.6111    5.2670  -14.0437 C   0  0  0  0  0  0  0  0  0  0  0  0
   -7.2586    6.3660  -13.8737 O   0  0  0  0  0  0  0  0  0  0  0  0
   -7.6877    4.7731  -15.4339 C   0  0  0  0  0  0  0  0  0  0  0  0
   -8.9141    4.2332  -15.8705 C   0  0  0  0  0  0  0  0  0  0  0  0
   -9.1380    3.9254  -17.2218 C   0  0  0  0  0  0  0  0  0  0  0  0
   -8.1480    4.1589  -18.1669 C   0  0  0  0  0  0  0  0  0  0  0  0
   -6.9580    4.6861  -17.7131 C   0  0  0  0  0  0  0  0  0  0  0  0
   -5.8352    4.9751  -18.4714 N   0  0  0  0  0  0  0  0  0  0  0  0
   -4.7960    5.3482  -17.6182 C   0  0  0  0  0  0  0  0  0  0  0  0
   -3.6359    5.5098  -17.9613 O   0  0  0  0  0  0  0  0  0  0  0  0
   -5.3409    5.4299  -16.3157 N   0  0  0  0  0  0  0  0  0  0  0  0
   -4.5312    5.5710  -15.1235 C   0  0  0  0  0  0  0  0  0  0  0  0
   -3.9271    6.9811  -14.8365 C   0  0  0  0  0  0  0  0  0  0  0  0
   -4.8507    8.1368  -15.2486 C   0  0  0  0  0  0  0  0  0  0  0  0
   -3.6664    7.0807  -13.3180 C   0  0  0  0  0  0  0  0  0  0  0  0
   -2.5745    7.1688  -15.5504 C   0  0  0  0  0  0  0  0  0  0  0  0
   -6.6890    4.9804  -16.3725 C   0  0  0  0  0  0  0  0  0  0  0  0
   -7.7751    5.4056  -10.9524 C   0  0  0  0  0  0  0  0  0  0  0  0
   -7.8663    5.4781   -9.5647 C   0  0  0  0  0  0  0  0  0  0  0  0
   -8.3279    4.3582   -8.9106 C   0  0  0  0  0  0  0  0  0  0  0  0
   -8.6086    4.1962   -7.4844 C   0  0  0  0  0  0  0  0  0  0  0  0
   -8.3756    5.0272   -6.6259 O   0  0  0  0  0  0  0  0  0  0  0  0
  1  2  1  0
  2  3  1  0
  3  4  1  0
  4  5  1  0
  5  6  2  0
  6  7  1  0
  7  8  1  0
  8  9  1  0
  9 10  2  0
  9 11  1  0
 11 12  2  0
 12 13  1  0
 13 14  2  0
 14 15  1  0
 15 16  1  0
 16 17  1  0
 17 18  2  0
 17 19  1  0
 19 20  1  0
 20 21  1  0
 21 22  1  0
 21 23  1  0
 21 24  1  0
 19 25  1  0
  7 26  2  0
 26 27  1  0
 27 28  2  0
 28 29  1  0
 29 30  2  0
 29  3  1  0
 28  5  1  0
 25 11  1  0
 25 15  2  0
M  END
>  <name>  (1007) 
P126767

>  <alias>  (1007) 
None

>  <smina_score_min>  (1007) 
-9.303

>  <exports>  (1007) 
['/opt/xchem-fragalysis-2/maxwin/BulkDock/OUTPUTS/openbind_xx01zvns2b_c2_elabs_1LOUTNY.sdf', '/opt/xchem-fragalysis-2/maxwin/BulkDock/OUTPUTS/openbind_xx01zvns2b_c2_elabs_1LSYIIV.sdf']

>  <tags>  (1007) 
syndirella_placed,openbind_xx01zvns2b_c2_elabs,openbind_xx01zvns2b_c2_elabs_scored_6.2plus,syndirella_product,openbind_xx01zvns2b_c2_elabs_scored,openbind_xx01zvns2b_c2_elabs_scored_top80percent,BulkDock Fragalysis export

>  <subsites>  (1007) 
1 - Z4590/B/203/1

>  <smiles>  (1007) 
CCN1Cc2cc(NC(=O)c3cccc4[nH]c(=O)n(CC(C)(C)C)c34)ccc2C1=O

>  <HIPPO Pose ID>  (1007) 
126767

>  <energy_score>  (1007) 
-54.895749

>  <inchikey>  (1007) 
HMGCVWWTXULBPT-UHFFFAOYSA-N

>  <gnina_score_min>  (1007) 
6.394

>  <gnina_score>  (1007) 
6.263

>  <ref_mols>  (1007) 
Z3503a

>  <HIPPO Compound ID>  (1007) 
189211

>  <distance_score>  (1007) 
0.518375

>  <rmsd(smina/fragmenstein)>  (1007) 
0.939

>  <ref_pdb>  (1007) 
Z3503a

>  <inspiration_score>  (1007) 
None

$$$$
P126771
     RDKit          3D

 31 34  0  0  0  0  0  0  0  0999 V2000
   -5.5858    7.8805  -19.1192 C   0  0  0  0  0  0  0  0  0  0  0  0
   -4.5491    6.9769  -19.7911 C   0  0  0  0  0  0  0  0  0  0  0  0
   -4.6801    7.1535  -21.3137 C   0  0  0  0  0  0  0  0  0  0  0  0
   -3.1404    7.4641  -19.4054 C   0  0  0  0  0  0  0  0  0  0  0  0
   -4.7901    5.4687  -19.4332 C   0  0  0  0  0  0  0  0  0  0  0  0
   -5.1878    5.2152  -18.0686 N   0  0  0  0  0  0  0  0  0  0  0  0
   -4.3816    5.4874  -16.9472 C   0  0  0  0  0  0  0  0  0  0  0  0
   -3.1877    5.7300  -16.9349 O   0  0  0  0  0  0  0  0  0  0  0  0
   -5.2116    5.4264  -15.8318 N   0  0  0  0  0  0  0  0  0  0  0  0
   -6.4816    5.0208  -16.2337 C   0  0  0  0  0  0  0  0  0  0  0  0
   -7.6108    4.8028  -15.4743 C   0  0  0  0  0  0  0  0  0  0  0  0
   -7.6201    5.2745  -14.0823 C   0  0  0  0  0  0  0  0  0  0  0  0
   -7.2853    6.3727  -13.8775 O   0  0  0  0  0  0  0  0  0  0  0  0
   -8.0898    4.1780  -13.1121 N   0  0  0  0  0  0  0  0  0  0  0  0
   -8.1551    4.1681  -11.7278 C   0  0  0  0  0  0  0  0  0  0  0  0
   -7.7923    5.3076  -10.9851 C   0  0  0  0  0  0  0  0  0  0  0  0
   -7.9058    5.3245   -9.5960 C   0  0  0  0  0  0  0  0  0  0  0  0
   -8.3909    4.1895   -8.9854 C   0  0  0  0  0  0  0  0  0  0  0  0
   -8.7230    3.0490   -9.7220 C   0  0  0  0  0  0  0  0  0  0  0  0
   -8.6040    3.0140  -11.0934 C   0  0  0  0  0  0  0  0  0  0  0  0
   -9.2278    2.0002   -8.7904 C   0  0  0  0  0  0  0  0  0  0  0  0
   -9.6153    2.7862   -7.6080 N   0  0  0  0  0  0  0  0  0  0  0  0
   -9.6633    1.9899   -6.3907 C   0  0  0  0  0  0  0  0  0  0  0  0
  -10.0327    2.7740   -5.1304 C   0  0  0  0  0  0  0  0  0  0  0  0
  -11.1344    3.5417   -5.3366 F   0  0  0  0  0  0  0  0  0  0  0  0
   -9.0412    3.6284   -4.7603 F   0  0  0  0  0  0  0  0  0  0  0  0
   -8.6982    3.9381   -7.5466 C   0  0  0  0  0  0  0  0  0  0  0  0
   -8.7418    4.2809  -16.1056 C   0  0  0  0  0  0  0  0  0  0  0  0
   -8.7118    4.0329  -17.4907 C   0  0  0  0  0  0  0  0  0  0  0  0
   -7.5738    4.3315  -18.2590 C   0  0  0  0  0  0  0  0  0  0  0  0
   -6.4664    4.8354  -17.6112 C   0  0  0  0  0  0  0  0  0  0  0  0
  1  2  1  0
  2  3  1  0
  2  4  1  0
  2  5  1  0
  5  6  1  0
  6  7  1  0
  7  8  2  0
  7  9  1  0
  9 10  1  0
 10 11  2  0
 11 12  1  0
 12 13  2  0
 12 14  1  0
 14 15  1  0
 15 16  2  0
 16 17  1  0
 17 18  2  0
 18 19  1  0
 19 20  2  0
 19 21  1  0
 21 22  1  0
 22 23  1  0
 23 24  1  0
 24 25  1  0
 24 26  1  0
 22 27  1  0
 11 28  1  0
 28 29  2  0
 29 30  1  0
 30 31  2  0
 31  6  1  0
 31 10  1  0
 20 15  1  0
 27 18  1  0
M  END
>  <name>  (1008) 
P126771

>  <alias>  (1008) 
None

>  <smina_score_min>  (1008) 
-9.822

>  <exports>  (1008) 
['/opt/xchem-fragalysis-2/maxwin/BulkDock/OUTPUTS/openbind_xx01zvns2b_c2_elabs_1LOUTNY.sdf', '/opt/xchem-fragalysis-2/maxwin/BulkDock/OUTPUTS/openbind_xx01zvns2b_c2_elabs_1LSYIIV.sdf']

>  <tags>  (1008) 
syndirella_placed,openbind_xx01zvns2b_c2_elabs,openbind_xx01zvns2b_c2_elabs_scored_6.2plus,syndirella_product,openbind_xx01zvns2b_c2_elabs_scored,openbind_xx01zvns2b_c2_elabs_scored_top80percent,BulkDock Fragalysis export

>  <subsites>  (1008) 
1 - Z4590/B/203/1

>  <smiles>  (1008) 
CC(C)(C)Cn1c(=O)[nH]c2c(C(=O)Nc3ccc4c(c3)CN(CC(F)F)C4)cccc21

>  <HIPPO Pose ID>  (1008) 
126771

>  <energy_score>  (1008) 
-11.726707

>  <inchikey>  (1008) 
NRUUPAICRUCNCZ-UHFFFAOYSA-N

>  <gnina_score_min>  (1008) 
6.294

>  <gnina_score>  (1008) 
6.022

>  <ref_mols>  (1008) 
Z3503a

>  <HIPPO Compound ID>  (1008) 
189216

>  <distance_score>  (1008) 
0.578536

>  <rmsd(smina/fragmenstein)>  (1008) 
0.753

>  <ref_pdb>  (1008) 
Z3503a

>  <inspiration_score>  (1008) 
None

$$$$
P126777
     RDKit          3D

 31 34  0  0  0  0  0  0  0  0999 V2000
   -8.2705    4.8171   -4.1561 C   0  0  0  0  0  0  0  0  0  0  0  0
   -9.4172    3.8689   -3.8558 C   0  0  0  0  0  0  0  0  0  0  0  0
  -10.2301    3.4273   -5.0781 C   0  0  0  0  0  0  0  0  0  0  0  0
   -9.4720    2.5619   -6.1037 C   0  0  0  0  0  0  0  0  0  0  0  0
   -9.4920    3.2024   -7.4061 N   0  0  0  0  0  0  0  0  0  0  0  0
   -8.5853    4.3538   -7.4870 C   0  0  0  0  0  0  0  0  0  0  0  0
   -8.3522    4.5020   -8.9459 C   0  0  0  0  0  0  0  0  0  0  0  0
   -7.9365    5.6199   -9.6318 C   0  0  0  0  0  0  0  0  0  0  0  0
   -7.8575    5.5244  -11.0133 C   0  0  0  0  0  0  0  0  0  0  0  0
   -8.1516    4.3186  -11.6755 C   0  0  0  0  0  0  0  0  0  0  0  0
   -8.0822    4.2774  -13.0631 N   0  0  0  0  0  0  0  0  0  0  0  0
   -7.7711    5.3932  -14.0859 C   0  0  0  0  0  0  0  0  0  0  0  0
   -7.6004    6.5364  -13.9290 O   0  0  0  0  0  0  0  0  0  0  0  0
   -7.7350    4.8674  -15.4603 C   0  0  0  0  0  0  0  0  0  0  0  0
   -8.9013    4.2191  -15.9195 C   0  0  0  0  0  0  0  0  0  0  0  0
   -9.0368    3.8141  -17.2553 C   0  0  0  0  0  0  0  0  0  0  0  0
   -8.0069    4.0344  -18.1578 C   0  0  0  0  0  0  0  0  0  0  0  0
   -6.8685    4.6460  -17.6746 C   0  0  0  0  0  0  0  0  0  0  0  0
   -5.7382    4.9659  -18.4080 N   0  0  0  0  0  0  0  0  0  0  0  0
   -4.8135    5.5863  -17.5736 C   0  0  0  0  0  0  0  0  0  0  0  0
   -3.7167    5.9930  -17.9227 O   0  0  0  0  0  0  0  0  0  0  0  0
   -5.4057    5.6735  -16.2897 N   0  0  0  0  0  0  0  0  0  0  0  0
   -4.8386    6.5160  -15.2584 C   0  0  0  0  0  0  0  0  0  0  0  0
   -3.8465    5.8620  -14.2613 C   0  0  0  0  0  0  0  0  0  0  0  0
   -2.6832    5.1752  -14.9902 C   0  0  0  0  0  0  0  0  0  0  0  0
   -3.2561    6.9793  -13.3739 C   0  0  0  0  0  0  0  0  0  0  0  0
   -4.5459    4.8557  -13.3411 C   0  0  0  0  0  0  0  0  0  0  0  0
   -6.6954    5.0767  -16.3518 C   0  0  0  0  0  0  0  0  0  0  0  0
   -8.5354    3.1785  -10.9594 C   0  0  0  0  0  0  0  0  0  0  0  0
   -8.6606    3.2986   -9.5867 C   0  0  0  0  0  0  0  0  0  0  0  0
   -9.1504    2.3239   -8.5520 C   0  0  0  0  0  0  0  0  0  0  0  0
  1  2  1  0
  2  3  1  0
  3  4  1  0
  4  5  1  0
  5  6  1  0
  6  7  1  0
  7  8  2  0
  8  9  1  0
  9 10  2  0
 10 11  1  0
 11 12  1  0
 12 13  2  0
 12 14  1  0
 14 15  2  0
 15 16  1  0
 16 17  2  0
 17 18  1  0
 18 19  1  0
 19 20  1  0
 20 21  2  0
 20 22  1  0
 22 23  1  0
 23 24  1  0
 24 25  1  0
 24 26  1  0
 24 27  1  0
 22 28  1  0
 10 29  1  0
 29 30  2  0
 30 31  1  0
 31  5  1  0
 30  7  1  0
 28 14  1  0
 28 18  2  0
M  END
>  <name>  (1009) 
P126777

>  <alias>  (1009) 
None

>  <smina_score_min>  (1009) 
-9.176

>  <exports>  (1009) 
['/opt/xchem-fragalysis-2/maxwin/BulkDock/OUTPUTS/openbind_xx01zvns2b_c2_elabs_1LOUTNY.sdf', '/opt/xchem-fragalysis-2/maxwin/BulkDock/OUTPUTS/openbind_xx01zvns2b_c2_elabs_1LSYIIV.sdf']

>  <tags>  (1009) 
syndirella_placed,openbind_xx01zvns2b_c2_elabs,openbind_xx01zvns2b_c2_elabs_scored_6.2plus,syndirella_product,openbind_xx01zvns2b_c2_elabs_scored,openbind_xx01zvns2b_c2_elabs_scored_top80percent,BulkDock Fragalysis export

>  <subsites>  (1009) 
1 - Z4590/B/203/1

>  <smiles>  (1009) 
CCCCN1Cc2ccc(NC(=O)c3cccc4[nH]c(=O)n(CC(C)(C)C)c34)cc2C1

>  <HIPPO Pose ID>  (1009) 
126777

>  <energy_score>  (1009) 
-46.456047

>  <inchikey>  (1009) 
KQOUZIZRVCRIMX-UHFFFAOYSA-N

>  <gnina_score_min>  (1009) 
6.406

>  <gnina_score>  (1009) 
6.289

>  <ref_mols>  (1009) 
Z3503a

>  <HIPPO Compound ID>  (1009) 
189222

>  <distance_score>  (1009) 
0.642056

>  <rmsd(smina/fragmenstein)>  (1009) 
0.869

>  <ref_pdb>  (1009) 
Z3503a

>  <inspiration_score>  (1009) 
None

$$$$
P126778
     RDKit          3D

 31 34  0  0  0  0  0  0  0  0999 V2000
   -2.6125    5.2416  -15.0624 C   0  0  0  0  0  0  0  0  0  0  0  0
   -3.7580    5.9239  -14.3022 C   0  0  0  0  0  0  0  0  0  0  0  0
   -4.4125    4.9160  -13.3513 C   0  0  0  0  0  0  0  0  0  0  0  0
   -3.1522    7.0559  -13.4446 C   0  0  0  0  0  0  0  0  0  0  0  0
   -4.7966    6.5565  -15.2664 C   0  0  0  0  0  0  0  0  0  0  0  0
   -5.3630    5.7044  -16.2907 N   0  0  0  0  0  0  0  0  0  0  0  0
   -4.7886    5.6150  -17.5822 C   0  0  0  0  0  0  0  0  0  0  0  0
   -3.6975    6.0220  -17.9477 O   0  0  0  0  0  0  0  0  0  0  0  0
   -5.7258    4.9940  -18.4039 N   0  0  0  0  0  0  0  0  0  0  0  0
   -6.8499    4.6845  -17.6565 C   0  0  0  0  0  0  0  0  0  0  0  0
   -8.0004    4.0800  -18.1205 C   0  0  0  0  0  0  0  0  0  0  0  0
   -9.0195    3.8728  -17.2014 C   0  0  0  0  0  0  0  0  0  0  0  0
   -8.8592    4.2811  -15.8685 C   0  0  0  0  0  0  0  0  0  0  0  0
   -7.6799    4.9224  -15.4319 C   0  0  0  0  0  0  0  0  0  0  0  0
   -7.6668    5.4065  -14.0418 C   0  0  0  0  0  0  0  0  0  0  0  0
   -7.6096    6.5527  -13.8372 O   0  0  0  0  0  0  0  0  0  0  0  0
   -7.7889    4.2212  -13.0632 N   0  0  0  0  0  0  0  0  0  0  0  0
   -7.9553    4.2032  -11.6854 C   0  0  0  0  0  0  0  0  0  0  0  0
   -7.7771    5.3731  -10.9254 C   0  0  0  0  0  0  0  0  0  0  0  0
   -7.9823    5.3693   -9.5459 C   0  0  0  0  0  0  0  0  0  0  0  0
   -8.3977    4.1891   -8.9672 C   0  0  0  0  0  0  0  0  0  0  0  0
   -8.5741    3.0238   -9.7229 C   0  0  0  0  0  0  0  0  0  0  0  0
   -8.3306    3.0040  -11.0795 C   0  0  0  0  0  0  0  0  0  0  0  0
   -9.1044    1.9437   -8.8323 C   0  0  0  0  0  0  0  0  0  0  0  0
   -9.6674    2.7280   -7.7249 N   0  0  0  0  0  0  0  0  0  0  0  0
   -9.9371    1.9803   -6.5074 C   0  0  0  0  0  0  0  0  0  0  0  0
  -10.8453    2.7841   -5.5782 C   0  0  0  0  0  0  0  0  0  0  0  0
  -10.1377    3.7390   -4.9123 F   0  0  0  0  0  0  0  0  0  0  0  0
  -11.4108    2.0011   -4.6352 F   0  0  0  0  0  0  0  0  0  0  0  0
   -8.7997    3.9038   -7.5573 C   0  0  0  0  0  0  0  0  0  0  0  0
   -6.6553    5.1189  -16.3385 C   0  0  0  0  0  0  0  0  0  0  0  0
  1  2  1  0
  2  3  1  0
  2  4  1  0
  2  5  1  0
  5  6  1  0
  6  7  1  0
  7  8  2  0
  7  9  1  0
  9 10  1  0
 10 11  2  0
 11 12  1  0
 12 13  2  0
 13 14  1  0
 14 15  1  0
 15 16  2  0
 15 17  1  0
 17 18  1  0
 18 19  2  0
 19 20  1  0
 20 21  2  0
 21 22  1  0
 22 23  2  0
 22 24  1  0
 24 25  1  0
 25 26  1  0
 26 27  1  0
 27 28  1  0
 27 29  1  0
 25 30  1  0
 14 31  2  0
 31  6  1  0
 31 10  1  0
 23 18  1  0
 30 21  1  0
M  END
>  <name>  (1010) 
P126778

>  <alias>  (1010) 
None

>  <smina_score_min>  (1010) 
-9.497

>  <exports>  (1010) 
['/opt/xchem-fragalysis-2/maxwin/BulkDock/OUTPUTS/openbind_xx01zvns2b_c2_elabs_1LOUTNY.sdf', '/opt/xchem-fragalysis-2/maxwin/BulkDock/OUTPUTS/openbind_xx01zvns2b_c2_elabs_1LSYIIV.sdf']

>  <tags>  (1010) 
syndirella_placed,openbind_xx01zvns2b_c2_elabs,openbind_xx01zvns2b_c2_elabs_scored_6.2plus,syndirella_product,openbind_xx01zvns2b_c2_elabs_scored,openbind_xx01zvns2b_c2_elabs_scored_top80percent,BulkDock Fragalysis export

>  <subsites>  (1010) 
1 - Z4590/B/203/1

>  <smiles>  (1010) 
CC(C)(C)Cn1c(=O)[nH]c2cccc(C(=O)Nc3ccc4c(c3)CN(CC(F)F)C4)c21

>  <HIPPO Pose ID>  (1010) 
126778

>  <energy_score>  (1010) 
-48.153421

>  <inchikey>  (1010) 
UKICTAOGYLBIKI-UHFFFAOYSA-N

>  <gnina_score_min>  (1010) 
6.465

>  <gnina_score>  (1010) 
6.197

>  <ref_mols>  (1010) 
Z3503a

>  <HIPPO Compound ID>  (1010) 
189223

>  <distance_score>  (1010) 
0.622401

>  <rmsd(smina/fragmenstein)>  (1010) 
0.463

>  <ref_pdb>  (1010) 
Z3503a

>  <inspiration_score>  (1010) 
None

$$$$
P126782
     RDKit          3D

 32 35  0  0  0  0  0  0  0  0999 V2000
   -2.7180    5.1627  -14.9072 C   0  0  0  0  0  0  0  0  0  0  0  0
   -3.8973    5.8309  -14.1865 C   0  0  0  0  0  0  0  0  0  0  0  0
   -3.3283    6.9427  -13.2784 C   0  0  0  0  0  0  0  0  0  0  0  0
   -4.6014    4.8089  -13.2874 C   0  0  0  0  0  0  0  0  0  0  0  0
   -4.8849    6.4878  -15.1866 C   0  0  0  0  0  0  0  0  0  0  0  0
   -5.4302    5.6534  -16.2360 N   0  0  0  0  0  0  0  0  0  0  0  0
   -4.8130    5.5696  -17.5090 C   0  0  0  0  0  0  0  0  0  0  0  0
   -3.7071    5.9736  -17.8331 O   0  0  0  0  0  0  0  0  0  0  0  0
   -5.7212    4.9502  -18.3619 N   0  0  0  0  0  0  0  0  0  0  0  0
   -6.8638    4.6244  -17.6495 C   0  0  0  0  0  0  0  0  0  0  0  0
   -7.9917    4.0104  -18.1528 C   0  0  0  0  0  0  0  0  0  0  0  0
   -9.0352    3.7830  -17.2670 C   0  0  0  0  0  0  0  0  0  0  0  0
   -8.9251    4.1850  -15.9277 C   0  0  0  0  0  0  0  0  0  0  0  0
   -7.7698    4.8351  -15.4485 C   0  0  0  0  0  0  0  0  0  0  0  0
   -7.8405    5.3877  -14.0876 C   0  0  0  0  0  0  0  0  0  0  0  0
   -7.7372    6.5442  -13.9712 O   0  0  0  0  0  0  0  0  0  0  0  0
   -8.1074    4.2940  -13.0281 N   0  0  0  0  0  0  0  0  0  0  0  0
   -8.2045    4.3824  -11.6441 C   0  0  0  0  0  0  0  0  0  0  0  0
   -7.9271    5.6183  -11.0316 C   0  0  0  0  0  0  0  0  0  0  0  0
   -7.9989    5.7703   -9.6560 C   0  0  0  0  0  0  0  0  0  0  0  0
   -8.3621    4.6688   -8.9161 C   0  0  0  0  0  0  0  0  0  0  0  0
   -8.6614    3.4357   -9.5050 C   0  0  0  0  0  0  0  0  0  0  0  0
   -8.5728    3.2692  -10.8790 C   0  0  0  0  0  0  0  0  0  0  0  0
   -9.0939    2.4794   -8.4288 C   0  0  0  0  0  0  0  0  0  0  0  0
   -8.7256    3.1768   -7.1889 N   0  0  0  0  0  0  0  0  0  0  0  0
   -9.4384    2.8429   -5.9627 C   0  0  0  0  0  0  0  0  0  0  0  0
   -8.8770    3.5567   -4.7094 C   0  0  0  0  0  0  0  0  0  0  0  0
   -9.3869    3.0802   -3.5551 F   0  0  0  0  0  0  0  0  0  0  0  0
   -9.2089    4.8804   -4.7351 F   0  0  0  0  0  0  0  0  0  0  0  0
   -7.5239    3.5060   -4.6106 F   0  0  0  0  0  0  0  0  0  0  0  0
   -8.5355    4.5948   -7.4446 C   0  0  0  0  0  0  0  0  0  0  0  0
   -6.7158    5.0507  -16.3226 C   0  0  0  0  0  0  0  0  0  0  0  0
  1  2  1  0
  2  3  1  0
  2  4  1  0
  2  5  1  0
  5  6  1  0
  6  7  1  0
  7  8  2  0
  7  9  1  0
  9 10  1  0
 10 11  2  0
 11 12  1  0
 12 13  2  0
 13 14  1  0
 14 15  1  0
 15 16  2  0
 15 17  1  0
 17 18  1  0
 18 19  2  0
 19 20  1  0
 20 21  2  0
 21 22  1  0
 22 23  2  0
 22 24  1  0
 24 25  1  0
 25 26  1  0
 26 27  1  0
 27 28  1  0
 27 29  1  0
 27 30  1  0
 25 31  1  0
 14 32  2  0
 32  6  1  0
 32 10  1  0
 23 18  1  0
 31 21  1  0
M  END
>  <name>  (1011) 
P126782

>  <alias>  (1011) 
None

>  <smina_score_min>  (1011) 
-9.353

>  <exports>  (1011) 
['/opt/xchem-fragalysis-2/maxwin/BulkDock/OUTPUTS/openbind_xx01zvns2b_c2_elabs_1LOUTNY.sdf', '/opt/xchem-fragalysis-2/maxwin/BulkDock/OUTPUTS/openbind_xx01zvns2b_c2_elabs_1LSYIIV.sdf']

>  <tags>  (1011) 
syndirella_placed,openbind_xx01zvns2b_c2_elabs,openbind_xx01zvns2b_c2_elabs_scored_6.2plus,syndirella_product,openbind_xx01zvns2b_c2_elabs_scored,openbind_xx01zvns2b_c2_elabs_scored_top80percent,BulkDock Fragalysis export

>  <subsites>  (1011) 
1 - Z4590/B/203/1

>  <smiles>  (1011) 
CC(C)(C)Cn1c(=O)[nH]c2cccc(C(=O)Nc3ccc4c(c3)CN(CC(F)(F)F)C4)c21

>  <HIPPO Pose ID>  (1011) 
126782

>  <energy_score>  (1011) 
-54.586131

>  <inchikey>  (1011) 
VLOGDXUYVPTARW-UHFFFAOYSA-N

>  <gnina_score_min>  (1011) 
6.376

>  <gnina_score>  (1011) 
6.18

>  <ref_mols>  (1011) 
Z3503a

>  <HIPPO Compound ID>  (1011) 
189229

>  <distance_score>  (1011) 
0.669632

>  <rmsd(smina/fragmenstein)>  (1011) 
1.24

>  <ref_pdb>  (1011) 
Z3503a

>  <inspiration_score>  (1011) 
None

$$$$
P126783
     RDKit          3D

 32 35  0  0  0  0  0  0  0  0999 V2000
   -7.2112    4.7237   -3.7770 C   0  0  0  0  0  0  0  0  0  0  0  0
   -7.5487    3.6849   -4.6861 O   0  0  0  0  0  0  0  0  0  0  0  0
   -8.9793    3.5299   -4.7710 C   0  0  0  0  0  0  0  0  0  0  0  0
   -9.4270    2.7018   -5.9905 C   0  0  0  0  0  0  0  0  0  0  0  0
   -9.0574    3.2352   -7.2857 N   0  0  0  0  0  0  0  0  0  0  0  0
   -9.0881    2.3976   -8.4834 C   0  0  0  0  0  0  0  0  0  0  0  0
   -8.6470    3.3500   -9.5462 C   0  0  0  0  0  0  0  0  0  0  0  0
   -8.5174    3.1828  -10.9157 C   0  0  0  0  0  0  0  0  0  0  0  0
   -8.1280    4.2966  -11.6737 C   0  0  0  0  0  0  0  0  0  0  0  0
   -8.0532    4.2073  -13.0585 N   0  0  0  0  0  0  0  0  0  0  0  0
   -7.6928    5.2756  -14.1147 C   0  0  0  0  0  0  0  0  0  0  0  0
   -7.4774    6.4160  -13.9939 O   0  0  0  0  0  0  0  0  0  0  0  0
   -7.7168    4.7372  -15.4828 C   0  0  0  0  0  0  0  0  0  0  0  0
   -8.9224    4.1747  -15.9407 C   0  0  0  0  0  0  0  0  0  0  0  0
   -9.1052    3.8583  -17.2950 C   0  0  0  0  0  0  0  0  0  0  0  0
   -8.0960    4.1080  -18.2173 C   0  0  0  0  0  0  0  0  0  0  0  0
   -6.9263    4.6587  -17.7386 C   0  0  0  0  0  0  0  0  0  0  0  0
   -5.7872    4.9644  -18.4656 N   0  0  0  0  0  0  0  0  0  0  0  0
   -4.7780    5.3566  -17.5840 C   0  0  0  0  0  0  0  0  0  0  0  0
   -3.6102    5.5291  -17.8933 O   0  0  0  0  0  0  0  0  0  0  0  0
   -5.3627    5.4398  -16.2985 N   0  0  0  0  0  0  0  0  0  0  0  0
   -4.5934    5.5802  -15.0786 C   0  0  0  0  0  0  0  0  0  0  0  0
   -3.9840    6.9838  -14.7738 C   0  0  0  0  0  0  0  0  0  0  0  0
   -3.7214    7.0588  -13.2539 C   0  0  0  0  0  0  0  0  0  0  0  0
   -2.6333    7.1835  -15.4869 C   0  0  0  0  0  0  0  0  0  0  0  0
   -4.9098    8.1445  -15.1638 C   0  0  0  0  0  0  0  0  0  0  0  0
   -6.6985    4.9610  -16.3945 C   0  0  0  0  0  0  0  0  0  0  0  0
   -7.8487    5.5329  -11.0570 C   0  0  0  0  0  0  0  0  0  0  0  0
   -7.9853    5.6954   -9.6861 C   0  0  0  0  0  0  0  0  0  0  0  0
   -8.3911    4.5938   -8.9703 C   0  0  0  0  0  0  0  0  0  0  0  0
   -8.6998    4.5359   -7.5473 C   0  0  0  0  0  0  0  0  0  0  0  0
   -8.6782    5.5092   -6.8167 O   0  0  0  0  0  0  0  0  0  0  0  0
  1  2  1  0
  2  3  1  0
  3  4  1  0
  4  5  1  0
  5  6  1  0
  6  7  1  0
  7  8  2  0
  8  9  1  0
  9 10  1  0
 10 11  1  0
 11 12  2  0
 11 13  1  0
 13 14  2  0
 14 15  1  0
 15 16  2  0
 16 17  1  0
 17 18  1  0
 18 19  1  0
 19 20  2  0
 19 21  1  0
 21 22  1  0
 22 23  1  0
 23 24  1  0
 23 25  1  0
 23 26  1  0
 21 27  1  0
  9 28  2  0
 28 29  1  0
 29 30  2  0
 30 31  1  0
 31 32  2  0
 31  5  1  0
 30  7  1  0
 27 13  1  0
 27 17  2  0
M  END
>  <name>  (1012) 
P126783

>  <alias>  (1012) 
None

>  <smina_score_min>  (1012) 
-8.445

>  <exports>  (1012) 
['/opt/xchem-fragalysis-2/maxwin/BulkDock/OUTPUTS/openbind_xx01zvns2b_c2_elabs_1LOUTNY.sdf', '/opt/xchem-fragalysis-2/maxwin/BulkDock/OUTPUTS/openbind_xx01zvns2b_c2_elabs_1LSYIIV.sdf']

>  <tags>  (1012) 
syndirella_placed,openbind_xx01zvns2b_c2_elabs,openbind_xx01zvns2b_c2_elabs_scored_6.2plus,syndirella_product,openbind_xx01zvns2b_c2_elabs_scored,openbind_xx01zvns2b_c2_elabs_scored_top80percent,BulkDock Fragalysis export

>  <subsites>  (1012) 
1 - Z4590/B/203/1

>  <smiles>  (1012) 
COCCN1Cc2cc(NC(=O)c3cccc4[nH]c(=O)n(CC(C)(C)C)c34)ccc2C1=O

>  <HIPPO Pose ID>  (1012) 
126783

>  <energy_score>  (1012) 
-47.897349

>  <inchikey>  (1012) 
MOPCCLWWUQELBL-UHFFFAOYSA-N

>  <gnina_score_min>  (1012) 
6.376

>  <gnina_score>  (1012) 
6.253

>  <ref_mols>  (1012) 
Z3503a

>  <HIPPO Compound ID>  (1012) 
189230

>  <distance_score>  (1012) 
0.609419

>  <rmsd(smina/fragmenstein)>  (1012) 
1.052

>  <ref_pdb>  (1012) 
Z3503a

>  <inspiration_score>  (1012) 
None

$$$$
P126784
     RDKit          3D

 32 35  0  0  0  0  0  0  0  0999 V2000
  -11.3588    2.7401   -5.4138 C   0  0  0  0  0  0  0  0  0  0  0  0
  -10.6882    1.6745   -6.0413 O   0  0  0  0  0  0  0  0  0  0  0  0
   -9.3318    1.9833   -6.3042 C   0  0  0  0  0  0  0  0  0  0  0  0
   -9.1958    2.7440   -7.5005 N   0  0  0  0  0  0  0  0  0  0  0  0
   -8.6573    3.9938   -7.5291 C   0  0  0  0  0  0  0  0  0  0  0  0
   -8.3826    4.7514   -6.6151 O   0  0  0  0  0  0  0  0  0  0  0  0
   -8.4311    4.3003   -8.9352 C   0  0  0  0  0  0  0  0  0  0  0  0
   -7.9501    5.4443   -9.5300 C   0  0  0  0  0  0  0  0  0  0  0  0
   -7.8310    5.4269  -10.9210 C   0  0  0  0  0  0  0  0  0  0  0  0
   -8.1611    4.2744  -11.6678 C   0  0  0  0  0  0  0  0  0  0  0  0
   -7.9870    4.2602  -13.0445 N   0  0  0  0  0  0  0  0  0  0  0  0
   -7.7503    5.4183  -14.0369 C   0  0  0  0  0  0  0  0  0  0  0  0
   -7.5881    6.5567  -13.8450 O   0  0  0  0  0  0  0  0  0  0  0  0
   -7.7380    4.9196  -15.4255 C   0  0  0  0  0  0  0  0  0  0  0  0
   -8.9097    4.2774  -15.8811 C   0  0  0  0  0  0  0  0  0  0  0  0
   -9.0504    3.8646  -17.2148 C   0  0  0  0  0  0  0  0  0  0  0  0
   -8.0194    4.0688  -18.1196 C   0  0  0  0  0  0  0  0  0  0  0  0
   -6.8758    4.6736  -17.6405 C   0  0  0  0  0  0  0  0  0  0  0  0
   -5.7424    4.9766  -18.3760 N   0  0  0  0  0  0  0  0  0  0  0  0
   -4.8109    5.5922  -17.5457 C   0  0  0  0  0  0  0  0  0  0  0  0
   -3.7105    5.9856  -17.8985 O   0  0  0  0  0  0  0  0  0  0  0  0
   -5.4012    5.6918  -16.2615 N   0  0  0  0  0  0  0  0  0  0  0  0
   -4.8270    6.5329  -15.2331 C   0  0  0  0  0  0  0  0  0  0  0  0
   -3.8260    5.8765  -14.2459 C   0  0  0  0  0  0  0  0  0  0  0  0
   -3.2307    6.9914  -13.3591 C   0  0  0  0  0  0  0  0  0  0  0  0
   -4.5168    4.8651  -13.3248 C   0  0  0  0  0  0  0  0  0  0  0  0
   -2.6671    5.1923  -14.9847 C   0  0  0  0  0  0  0  0  0  0  0  0
   -6.6979    5.1117  -16.3200 C   0  0  0  0  0  0  0  0  0  0  0  0
   -8.6471    3.1286  -11.0398 C   0  0  0  0  0  0  0  0  0  0  0  0
   -8.7938    3.1881   -9.6709 C   0  0  0  0  0  0  0  0  0  0  0  0
   -9.3263    2.2017   -8.7441 C   0  0  0  0  0  0  0  0  0  0  0  0
   -9.8052    1.1473   -9.1047 O   0  0  0  0  0  0  0  0  0  0  0  0
  1  2  1  0
  2  3  1  0
  3  4  1  0
  4  5  1  0
  5  6  2  0
  5  7  1  0
  7  8  2  0
  8  9  1  0
  9 10  2  0
 10 11  1  0
 11 12  1  0
 12 13  2  0
 12 14  1  0
 14 15  2  0
 15 16  1  0
 16 17  2  0
 17 18  1  0
 18 19  1  0
 19 20  1  0
 20 21  2  0
 20 22  1  0
 22 23  1  0
 23 24  1  0
 24 25  1  0
 24 26  1  0
 24 27  1  0
 22 28  1  0
 10 29  1  0
 29 30  2  0
 30 31  1  0
 31 32  2  0
 31  4  1  0
 30  7  1  0
 28 14  1  0
 28 18  2  0
M  END
>  <name>  (1013) 
P126784

>  <alias>  (1013) 
None

>  <smina_score_min>  (1013) 
-8.165

>  <exports>  (1013) 
['/opt/xchem-fragalysis-2/maxwin/BulkDock/OUTPUTS/openbind_xx01zvns2b_c2_elabs_1LOUTNY.sdf', '/opt/xchem-fragalysis-2/maxwin/BulkDock/OUTPUTS/openbind_xx01zvns2b_c2_elabs_1LSYIIV.sdf']

>  <tags>  (1013) 
syndirella_placed,openbind_xx01zvns2b_c2_elabs,openbind_xx01zvns2b_c2_elabs_scored_6.2plus,syndirella_product,openbind_xx01zvns2b_c2_elabs_scored,openbind_xx01zvns2b_c2_elabs_scored_top80percent,BulkDock Fragalysis export

>  <subsites>  (1013) 
1 - Z4590/B/203/1

>  <smiles>  (1013) 
COCN1C(=O)c2ccc(NC(=O)c3cccc4[nH]c(=O)n(CC(C)(C)C)c34)cc2C1=O

>  <HIPPO Pose ID>  (1013) 
126784

>  <energy_score>  (1013) 
-54.2541

>  <inchikey>  (1013) 
CZYBHQJFXVFKQF-UHFFFAOYSA-N

>  <gnina_score_min>  (1013) 
6.306

>  <gnina_score>  (1013) 
6.136

>  <ref_mols>  (1013) 
Z3503a

>  <HIPPO Compound ID>  (1013) 
189232

>  <distance_score>  (1013) 
0.567266

>  <rmsd(smina/fragmenstein)>  (1013) 
0.513

>  <ref_pdb>  (1013) 
Z3503a

>  <inspiration_score>  (1013) 
None

$$$$
P126787
     RDKit          3D

 32 35  0  0  0  0  0  0  0  0999 V2000
  -10.2794    2.7692   -4.7294 C   0  0  0  0  0  0  0  0  0  0  0  0
   -9.1611    3.7431   -4.3318 C   0  0  0  0  0  0  0  0  0  0  0  0
   -9.1797    4.0842   -2.8434 C   0  0  0  0  0  0  0  0  0  0  0  0
   -9.2240    5.0328   -5.1599 C   0  0  0  0  0  0  0  0  0  0  0  0
   -9.4172    4.7425   -6.6475 C   0  0  0  0  0  0  0  0  0  0  0  0
   -8.4007    3.8052   -7.1280 N   0  0  0  0  0  0  0  0  0  0  0  0
   -7.2446    4.5889   -7.5840 C   0  0  0  0  0  0  0  0  0  0  0  0
   -7.4657    4.7550   -9.0421 C   0  0  0  0  0  0  0  0  0  0  0  0
   -6.9328    5.7108   -9.8676 C   0  0  0  0  0  0  0  0  0  0  0  0
   -7.2230    5.6099  -11.2163 C   0  0  0  0  0  0  0  0  0  0  0  0
   -7.9756    4.5343  -11.7239 C   0  0  0  0  0  0  0  0  0  0  0  0
   -8.0784    4.4191  -13.1033 N   0  0  0  0  0  0  0  0  0  0  0  0
   -7.6244    5.3773  -14.2264 C   0  0  0  0  0  0  0  0  0  0  0  0
   -7.1630    6.4473  -14.1670 O   0  0  0  0  0  0  0  0  0  0  0  0
   -7.7342    4.7811  -15.5662 C   0  0  0  0  0  0  0  0  0  0  0  0
   -8.9657    4.2271  -15.9552 C   0  0  0  0  0  0  0  0  0  0  0  0
   -9.2114    3.8851  -17.2932 C   0  0  0  0  0  0  0  0  0  0  0  0
   -8.2387    4.0940  -18.2634 C   0  0  0  0  0  0  0  0  0  0  0  0
   -7.0367    4.6251  -17.8491 C   0  0  0  0  0  0  0  0  0  0  0  0
   -5.9299    4.9006  -18.6355 N   0  0  0  0  0  0  0  0  0  0  0  0
   -4.8726    5.2876  -17.8111 C   0  0  0  0  0  0  0  0  0  0  0  0
   -3.7188    5.4404  -18.1789 O   0  0  0  0  0  0  0  0  0  0  0  0
   -5.3897    5.3942  -16.4999 N   0  0  0  0  0  0  0  0  0  0  0  0
   -4.5460    5.5215  -15.3285 C   0  0  0  0  0  0  0  0  0  0  0  0
   -3.8669    6.9061  -15.0774 C   0  0  0  0  0  0  0  0  0  0  0  0
   -4.7268    8.1022  -15.5121 C   0  0  0  0  0  0  0  0  0  0  0  0
   -2.5072    7.0050  -15.7973 C   0  0  0  0  0  0  0  0  0  0  0  0
   -3.5921    7.0269  -13.5626 C   0  0  0  0  0  0  0  0  0  0  0  0
   -6.7428    4.9473  -16.5242 C   0  0  0  0  0  0  0  0  0  0  0  0
   -8.5427    3.5880  -10.8671 C   0  0  0  0  0  0  0  0  0  0  0  0
   -8.3169    3.7529   -9.5104 C   0  0  0  0  0  0  0  0  0  0  0  0
   -8.8390    3.0039   -8.3241 C   0  0  0  0  0  0  0  0  0  0  0  0
  1  2  1  0
  2  3  1  0
  2  4  1  0
  4  5  1  0
  5  6  1  0
  6  7  1  0
  7  8  1  0
  8  9  2  0
  9 10  1  0
 10 11  2  0
 11 12  1  0
 12 13  1  0
 13 14  2  0
 13 15  1  0
 15 16  2  0
 16 17  1  0
 17 18  2  0
 18 19  1  0
 19 20  1  0
 20 21  1  0
 21 22  2  0
 21 23  1  0
 23 24  1  0
 24 25  1  0
 25 26  1  0
 25 27  1  0
 25 28  1  0
 23 29  1  0
 11 30  1  0
 30 31  2  0
 31 32  1  0
 32  6  1  0
 31  8  1  0
 29 15  1  0
 29 19  2  0
M  END
>  <name>  (1014) 
P126787

>  <alias>  (1014) 
None

>  <smina_score_min>  (1014) 
-7.614

>  <exports>  (1014) 
['/opt/xchem-fragalysis-2/maxwin/BulkDock/OUTPUTS/openbind_xx01zvns2b_c2_elabs_1LOUTNY.sdf', '/opt/xchem-fragalysis-2/maxwin/BulkDock/OUTPUTS/openbind_xx01zvns2b_c2_elabs_1LSYIIV.sdf']

>  <tags>  (1014) 
syndirella_placed,openbind_xx01zvns2b_c2_elabs,openbind_xx01zvns2b_c2_elabs_scored_6.2plus,syndirella_product,openbind_xx01zvns2b_c2_elabs_scored,openbind_xx01zvns2b_c2_elabs_scored_top80percent,BulkDock Fragalysis export

>  <subsites>  (1014) 
1 - Z4590/B/203/1

>  <smiles>  (1014) 
CC(C)CCN1Cc2ccc(NC(=O)c3cccc4[nH]c(=O)n(CC(C)(C)C)c34)cc2C1

>  <HIPPO Pose ID>  (1014) 
126787

>  <energy_score>  (1014) 
-14.495892

>  <inchikey>  (1014) 
HFQZMQPVMGRINK-UHFFFAOYSA-N

>  <gnina_score_min>  (1014) 
6.342

>  <gnina_score>  (1014) 
6.301

>  <ref_mols>  (1014) 
Z3503a

>  <HIPPO Compound ID>  (1014) 
189234

>  <distance_score>  (1014) 
0.968563

>  <rmsd(smina/fragmenstein)>  (1014) 
0.679

>  <ref_pdb>  (1014) 
Z3503a

>  <inspiration_score>  (1014) 
None

$$$$
P126790
     RDKit          3D

 32 35  0  0  0  0  0  0  0  0999 V2000
  -11.8695    2.2054   -5.2666 C   0  0  0  0  0  0  0  0  0  0  0  0
  -10.8881    3.3261   -5.4226 C   0  0  0  0  0  0  0  0  0  0  0  0
   -9.5272    2.7241   -5.2390 C   0  0  0  0  0  0  0  0  0  0  0  0
   -8.4244    3.6014   -5.7282 C   0  0  0  0  0  0  0  0  0  0  0  0
   -8.5293    3.9092   -7.1294 N   0  0  0  0  0  0  0  0  0  0  0  0
   -8.8348    2.9524   -8.2149 C   0  0  0  0  0  0  0  0  0  0  0  0
   -8.5121    3.7643   -9.4346 C   0  0  0  0  0  0  0  0  0  0  0  0
   -8.5876    3.4708  -10.7910 C   0  0  0  0  0  0  0  0  0  0  0  0
   -8.2201    4.4867  -11.6852 C   0  0  0  0  0  0  0  0  0  0  0  0
   -8.2060    4.3078  -13.0630 N   0  0  0  0  0  0  0  0  0  0  0  0
   -7.8386    5.2870  -14.1964 C   0  0  0  0  0  0  0  0  0  0  0  0
   -7.5640    6.4214  -14.1574 O   0  0  0  0  0  0  0  0  0  0  0  0
   -7.7471    4.6715  -15.5197 C   0  0  0  0  0  0  0  0  0  0  0  0
   -8.8526    4.1488  -16.1814 C   0  0  0  0  0  0  0  0  0  0  0  0
   -8.7710    3.9101  -17.5655 C   0  0  0  0  0  0  0  0  0  0  0  0
   -7.6137    4.2266  -18.3017 C   0  0  0  0  0  0  0  0  0  0  0  0
   -6.5300    4.7362  -17.6215 C   0  0  0  0  0  0  0  0  0  0  0  0
   -6.5924    4.9034  -16.2444 C   0  0  0  0  0  0  0  0  0  0  0  0
   -5.3486    5.3467  -15.8004 N   0  0  0  0  0  0  0  0  0  0  0  0
   -4.4875    5.4485  -16.8884 C   0  0  0  0  0  0  0  0  0  0  0  0
   -3.3064    5.7407  -16.8283 O   0  0  0  0  0  0  0  0  0  0  0  0
   -5.2488    5.1590  -18.0366 N   0  0  0  0  0  0  0  0  0  0  0  0
   -4.8064    5.4168  -19.3869 C   0  0  0  0  0  0  0  0  0  0  0  0
   -4.5637    6.9261  -19.7402 C   0  0  0  0  0  0  0  0  0  0  0  0
   -4.6774    7.1049  -21.2641 C   0  0  0  0  0  0  0  0  0  0  0  0
   -3.1596    7.4146  -19.3395 C   0  0  0  0  0  0  0  0  0  0  0  0
   -5.6098    7.8280  -19.0813 C   0  0  0  0  0  0  0  0  0  0  0  0
   -7.8011    5.7535  -11.2182 C   0  0  0  0  0  0  0  0  0  0  0  0
   -7.7136    6.0376   -9.8733 C   0  0  0  0  0  0  0  0  0  0  0  0
   -8.0656    5.0249   -9.0251 C   0  0  0  0  0  0  0  0  0  0  0  0
   -8.0160    5.0940   -7.5812 C   0  0  0  0  0  0  0  0  0  0  0  0
   -7.5704    6.0290   -6.9416 O   0  0  0  0  0  0  0  0  0  0  0  0
  1  2  1  0
  2  3  1  0
  3  4  1  0
  4  5  1  0
  5  6  1  0
  6  7  1  0
  7  8  2  0
  8  9  1  0
  9 10  1  0
 10 11  1  0
 11 12  2  0
 11 13  1  0
 13 14  2  0
 14 15  1  0
 15 16  2  0
 16 17  1  0
 17 18  2  0
 18 19  1  0
 19 20  1  0
 20 21  2  0
 20 22  1  0
 22 23  1  0
 23 24  1  0
 24 25  1  0
 24 26  1  0
 24 27  1  0
  9 28  2  0
 28 29  1  0
 29 30  2  0
 30 31  1  0
 31 32  2  0
 31  5  1  0
 30  7  1  0
 18 13  1  0
 22 17  1  0
M  END
>  <name>  (1015) 
P126790

>  <alias>  (1015) 
None

>  <smina_score_min>  (1015) 
-8.761

>  <exports>  (1015) 
['/opt/xchem-fragalysis-2/maxwin/BulkDock/OUTPUTS/openbind_xx01zvns2b_c2_elabs_1LOUTNY.sdf', '/opt/xchem-fragalysis-2/maxwin/BulkDock/OUTPUTS/openbind_xx01zvns2b_c2_elabs_1LSYIIV.sdf']

>  <tags>  (1015) 
syndirella_placed,openbind_xx01zvns2b_c2_elabs,openbind_xx01zvns2b_c2_elabs_scored_6.2plus,syndirella_product,openbind_xx01zvns2b_c2_elabs_scored,openbind_xx01zvns2b_c2_elabs_scored_top80percent,BulkDock Fragalysis export

>  <subsites>  (1015) 
1 - Z4590/B/203/1

>  <smiles>  (1015) 
CCCCN1Cc2cc(NC(=O)c3cccc4c3[nH]c(=O)n4CC(C)(C)C)ccc2C1=O

>  <HIPPO Pose ID>  (1015) 
126790

>  <energy_score>  (1015) 
-8.152144

>  <inchikey>  (1015) 
MFCGRWJLQPBPKB-UHFFFAOYSA-N

>  <gnina_score_min>  (1015) 
6.248

>  <gnina_score>  (1015) 
6.161

>  <ref_mols>  (1015) 
Z3503a

>  <HIPPO Compound ID>  (1015) 
189236

>  <distance_score>  (1015) 
0.896644

>  <rmsd(smina/fragmenstein)>  (1015) 
0.779

>  <ref_pdb>  (1015) 
Z3503a

>  <inspiration_score>  (1015) 
None

$$$$
P126792
     RDKit          3D

 32 35  0  0  0  0  0  0  0  0999 V2000
   -7.8389    5.8599   -4.1664 C   0  0  0  0  0  0  0  0  0  0  0  0
   -9.1030    4.9905   -4.1764 C   0  0  0  0  0  0  0  0  0  0  0  0
   -9.6818    5.0125   -2.7560 C   0  0  0  0  0  0  0  0  0  0  0  0
   -8.7858    3.5396   -4.5951 C   0  0  0  0  0  0  0  0  0  0  0  0
   -9.5859    2.9344   -5.7801 C   0  0  0  0  0  0  0  0  0  0  0  0
   -9.4359    3.5261   -7.1002 N   0  0  0  0  0  0  0  0  0  0  0  0
   -8.3626    4.4871   -7.2981 C   0  0  0  0  0  0  0  0  0  0  0  0
   -8.2036    4.5343   -8.7745 C   0  0  0  0  0  0  0  0  0  0  0  0
   -7.6213    5.5305   -9.5184 C   0  0  0  0  0  0  0  0  0  0  0  0
   -7.6106    5.3675  -10.8929 C   0  0  0  0  0  0  0  0  0  0  0  0
   -8.1523    4.2193  -11.5060 C   0  0  0  0  0  0  0  0  0  0  0  0
   -8.0701    4.1401  -12.8951 N   0  0  0  0  0  0  0  0  0  0  0  0
   -7.4714    5.1287  -13.9244 C   0  0  0  0  0  0  0  0  0  0  0  0
   -6.8849    6.1279  -13.7634 O   0  0  0  0  0  0  0  0  0  0  0  0
   -7.5767    4.6846  -15.3290 C   0  0  0  0  0  0  0  0  0  0  0  0
   -8.7469    4.2134  -15.9213 C   0  0  0  0  0  0  0  0  0  0  0  0
   -8.7934    4.0250  -17.3204 C   0  0  0  0  0  0  0  0  0  0  0  0
   -7.6936    4.3351  -18.1444 C   0  0  0  0  0  0  0  0  0  0  0  0
   -6.5433    4.7941  -17.5421 C   0  0  0  0  0  0  0  0  0  0  0  0
   -6.4904    4.9217  -16.1573 C   0  0  0  0  0  0  0  0  0  0  0  0
   -5.1969    5.3062  -15.8075 N   0  0  0  0  0  0  0  0  0  0  0  0
   -4.4201    5.4028  -16.9541 C   0  0  0  0  0  0  0  0  0  0  0  0
   -3.2231    5.6296  -16.9845 O   0  0  0  0  0  0  0  0  0  0  0  0
   -5.2803    5.1800  -18.0462 N   0  0  0  0  0  0  0  0  0  0  0  0
   -4.9198    5.4387  -19.4203 C   0  0  0  0  0  0  0  0  0  0  0  0
   -4.6184    6.9397  -19.7662 C   0  0  0  0  0  0  0  0  0  0  0  0
   -3.1841    7.3680  -19.4044 C   0  0  0  0  0  0  0  0  0  0  0  0
   -5.6035    7.8732  -19.0621 C   0  0  0  0  0  0  0  0  0  0  0  0
   -4.7679    7.1409  -21.2842 C   0  0  0  0  0  0  0  0  0  0  0  0
   -8.7283    3.2048  -10.7309 C   0  0  0  0  0  0  0  0  0  0  0  0
   -8.7631    3.3917   -9.3532 C   0  0  0  0  0  0  0  0  0  0  0  0
   -9.3550    2.5645   -8.2404 C   0  0  0  0  0  0  0  0  0  0  0  0
  1  2  1  0
  2  3  1  0
  2  4  1  0
  4  5  1  0
  5  6  1  0
  6  7  1  0
  7  8  1  0
  8  9  2  0
  9 10  1  0
 10 11  2  0
 11 12  1  0
 12 13  1  0
 13 14  2  0
 13 15  1  0
 15 16  2  0
 16 17  1  0
 17 18  2  0
 18 19  1  0
 19 20  2  0
 20 21  1  0
 21 22  1  0
 22 23  2  0
 22 24  1  0
 24 25  1  0
 25 26  1  0
 26 27  1  0
 26 28  1  0
 26 29  1  0
 11 30  1  0
 30 31  2  0
 31 32  1  0
 32  6  1  0
 31  8  1  0
 20 15  1  0
 24 19  1  0
M  END
>  <name>  (1016) 
P126792

>  <alias>  (1016) 
None

>  <smina_score_min>  (1016) 
-9.055

>  <exports>  (1016) 
['/opt/xchem-fragalysis-2/maxwin/BulkDock/OUTPUTS/openbind_xx01zvns2b_c2_elabs_1LOUTNY.sdf', '/opt/xchem-fragalysis-2/maxwin/BulkDock/OUTPUTS/openbind_xx01zvns2b_c2_elabs_1LSYIIV.sdf']

>  <tags>  (1016) 
syndirella_placed,openbind_xx01zvns2b_c2_elabs,openbind_xx01zvns2b_c2_elabs_scored_6.2plus,syndirella_product,openbind_xx01zvns2b_c2_elabs_scored,openbind_xx01zvns2b_c2_elabs_scored_top80percent,BulkDock Fragalysis export

>  <subsites>  (1016) 
1 - Z4590/B/203/1

>  <smiles>  (1016) 
CC(C)CCN1Cc2ccc(NC(=O)c3cccc4c3[nH]c(=O)n4CC(C)(C)C)cc2C1

>  <HIPPO Pose ID>  (1016) 
126792

>  <energy_score>  (1016) 
-38.526935

>  <inchikey>  (1016) 
YRXPDCAIBNXUQC-UHFFFAOYSA-N

>  <gnina_score_min>  (1016) 
6.348

>  <gnina_score>  (1016) 
6.189

>  <ref_mols>  (1016) 
Z3503a

>  <HIPPO Compound ID>  (1016) 
189238

>  <distance_score>  (1016) 
0.629903

>  <rmsd(smina/fragmenstein)>  (1016) 
0.846

>  <ref_pdb>  (1016) 
Z3503a

>  <inspiration_score>  (1016) 
None

$$$$
P126821
     RDKit          3D

 32 35  0  0  0  0  0  0  0  0999 V2000
  -11.4948    2.1882   -5.3599 C   0  0  0  0  0  0  0  0  0  0  0  0
  -11.0537    3.5353   -5.3004 O   0  0  0  0  0  0  0  0  0  0  0  0
   -9.6684    3.6212   -4.9726 C   0  0  0  0  0  0  0  0  0  0  0  0
   -8.7743    2.8309   -5.9275 C   0  0  0  0  0  0  0  0  0  0  0  0
   -8.7916    3.3591   -7.2624 N   0  0  0  0  0  0  0  0  0  0  0  0
   -9.0493    2.5331   -8.4405 C   0  0  0  0  0  0  0  0  0  0  0  0
   -8.6387    3.4491   -9.5470 C   0  0  0  0  0  0  0  0  0  0  0  0
   -8.6751    3.2812  -10.9213 C   0  0  0  0  0  0  0  0  0  0  0  0
   -8.2364    4.3516  -11.7080 C   0  0  0  0  0  0  0  0  0  0  0  0
   -8.2111    4.2607  -13.0926 N   0  0  0  0  0  0  0  0  0  0  0  0
   -7.7793    5.2894  -14.1553 C   0  0  0  0  0  0  0  0  0  0  0  0
   -7.4494    6.4032  -14.0404 O   0  0  0  0  0  0  0  0  0  0  0  0
   -7.7192    4.7339  -15.5103 C   0  0  0  0  0  0  0  0  0  0  0  0
   -8.8278    4.2044  -16.1648 C   0  0  0  0  0  0  0  0  0  0  0  0
   -8.7551    3.9564  -17.5482 C   0  0  0  0  0  0  0  0  0  0  0  0
   -7.6001    4.2641  -18.2905 C   0  0  0  0  0  0  0  0  0  0  0  0
   -6.5127    4.7758  -17.6176 C   0  0  0  0  0  0  0  0  0  0  0  0
   -6.5688    4.9571  -16.2418 C   0  0  0  0  0  0  0  0  0  0  0  0
   -5.3188    5.3889  -15.8057 N   0  0  0  0  0  0  0  0  0  0  0  0
   -4.4607    5.4731  -16.8974 C   0  0  0  0  0  0  0  0  0  0  0  0
   -3.2767    5.7539  -16.8441 O   0  0  0  0  0  0  0  0  0  0  0  0
   -5.2292    5.1819  -18.0404 N   0  0  0  0  0  0  0  0  0  0  0  0
   -4.7925    5.4338  -19.3936 C   0  0  0  0  0  0  0  0  0  0  0  0
   -4.5515    6.9419  -19.7529 C   0  0  0  0  0  0  0  0  0  0  0  0
   -3.1475    7.4328  -19.3546 C   0  0  0  0  0  0  0  0  0  0  0  0
   -5.5976    7.8460  -19.0965 C   0  0  0  0  0  0  0  0  0  0  0  0
   -4.6666    7.1146  -21.2773 C   0  0  0  0  0  0  0  0  0  0  0  0
   -7.7744    5.5502  -11.1196 C   0  0  0  0  0  0  0  0  0  0  0  0
   -7.7224    5.7065   -9.7461 C   0  0  0  0  0  0  0  0  0  0  0  0
   -8.1539    4.6412   -9.0002 C   0  0  0  0  0  0  0  0  0  0  0  0
   -8.1762    4.5497   -7.5512 C   0  0  0  0  0  0  0  0  0  0  0  0
   -7.6937    5.3650   -6.7865 O   0  0  0  0  0  0  0  0  0  0  0  0
  1  2  1  0
  2  3  1  0
  3  4  1  0
  4  5  1  0
  5  6  1  0
  6  7  1  0
  7  8  2  0
  8  9  1  0
  9 10  1  0
 10 11  1  0
 11 12  2  0
 11 13  1  0
 13 14  2  0
 14 15  1  0
 15 16  2  0
 16 17  1  0
 17 18  2  0
 18 19  1  0
 19 20  1  0
 20 21  2  0
 20 22  1  0
 22 23  1  0
 23 24  1  0
 24 25  1  0
 24 26  1  0
 24 27  1  0
  9 28  2  0
 28 29  1  0
 29 30  2  0
 30 31  1  0
 31 32  2  0
 31  5  1  0
 30  7  1  0
 18 13  1  0
 22 17  1  0
M  END
>  <name>  (1017) 
P126821

>  <alias>  (1017) 
None

>  <smina_score_min>  (1017) 
-8.362

>  <exports>  (1017) 
['/opt/xchem-fragalysis-2/maxwin/BulkDock/OUTPUTS/openbind_xx01zvns2b_c2_elabs_1LOUTNY.sdf', '/opt/xchem-fragalysis-2/maxwin/BulkDock/OUTPUTS/openbind_xx01zvns2b_c2_elabs_1LSYIIV.sdf']

>  <tags>  (1017) 
syndirella_placed,openbind_xx01zvns2b_c2_elabs,openbind_xx01zvns2b_c2_elabs_scored_6.2plus,syndirella_product,openbind_xx01zvns2b_c2_elabs_scored,openbind_xx01zvns2b_c2_elabs_scored_top80percent,BulkDock Fragalysis export

>  <subsites>  (1017) 
1 - Z4590/B/203/1

>  <smiles>  (1017) 
COCCN1Cc2cc(NC(=O)c3cccc4c3[nH]c(=O)n4CC(C)(C)C)ccc2C1=O

>  <HIPPO Pose ID>  (1017) 
126821

>  <energy_score>  (1017) 
-47.502188

>  <inchikey>  (1017) 
KDDCAVYYRLPODZ-UHFFFAOYSA-N

>  <gnina_score_min>  (1017) 
6.231

>  <gnina_score>  (1017) 
6.003

>  <ref_mols>  (1017) 
Z3503a

>  <HIPPO Compound ID>  (1017) 
189259

>  <distance_score>  (1017) 
0.700315

>  <rmsd(smina/fragmenstein)>  (1017) 
0.805

>  <ref_pdb>  (1017) 
Z3503a

>  <inspiration_score>  (1017) 
None

$$$$
P126822
     RDKit          3D

 32 35  0  0  0  0  0  0  0  0999 V2000
   -5.5960    7.8560  -19.0881 C   0  0  0  0  0  0  0  0  0  0  0  0
   -4.5553    6.9433  -19.7408 C   0  0  0  0  0  0  0  0  0  0  0  0
   -4.6686    7.1105  -21.2660 C   0  0  0  0  0  0  0  0  0  0  0  0
   -3.1487    7.4267  -19.3432 C   0  0  0  0  0  0  0  0  0  0  0  0
   -4.8075    5.4387  -19.3758 C   0  0  0  0  0  0  0  0  0  0  0  0
   -5.2375    5.1953  -18.0188 N   0  0  0  0  0  0  0  0  0  0  0  0
   -4.4555    5.4721  -16.8815 C   0  0  0  0  0  0  0  0  0  0  0  0
   -3.2697    5.7470  -16.8380 O   0  0  0  0  0  0  0  0  0  0  0  0
   -5.3016    5.3790  -15.7812 N   0  0  0  0  0  0  0  0  0  0  0  0
   -6.5573    4.9530  -16.2065 C   0  0  0  0  0  0  0  0  0  0  0  0
   -7.6956    4.7143  -15.4606 C   0  0  0  0  0  0  0  0  0  0  0  0
   -7.7279    5.2188  -14.0823 C   0  0  0  0  0  0  0  0  0  0  0  0
   -7.3711    6.3201  -13.9274 O   0  0  0  0  0  0  0  0  0  0  0  0
   -8.1899    4.1636  -13.0563 N   0  0  0  0  0  0  0  0  0  0  0  0
   -8.2194    4.2072  -11.6679 C   0  0  0  0  0  0  0  0  0  0  0  0
   -7.7291    5.3647  -11.0308 C   0  0  0  0  0  0  0  0  0  0  0  0
   -7.7363    5.4864   -9.6511 C   0  0  0  0  0  0  0  0  0  0  0  0
   -8.2594    4.4380   -8.9346 C   0  0  0  0  0  0  0  0  0  0  0  0
   -8.7515    3.2805   -9.5453 C   0  0  0  0  0  0  0  0  0  0  0  0
   -8.7201    3.1367  -10.9224 C   0  0  0  0  0  0  0  0  0  0  0  0
   -9.2850    2.3744   -8.4726 C   0  0  0  0  0  0  0  0  0  0  0  0
   -9.4311    3.2835   -7.3067 N   0  0  0  0  0  0  0  0  0  0  0  0
   -9.3830    2.6200   -5.9965 C   0  0  0  0  0  0  0  0  0  0  0  0
   -9.1180    3.5423   -4.7811 C   0  0  0  0  0  0  0  0  0  0  0  0
   -9.9018    4.6521   -4.8175 F   0  0  0  0  0  0  0  0  0  0  0  0
   -9.3506    2.9526   -3.5922 F   0  0  0  0  0  0  0  0  0  0  0  0
   -7.8272    3.9727   -4.7486 F   0  0  0  0  0  0  0  0  0  0  0  0
   -8.4117    4.3286   -7.4638 C   0  0  0  0  0  0  0  0  0  0  0  0
   -8.8136    4.1983  -16.1118 C   0  0  0  0  0  0  0  0  0  0  0  0
   -8.7603    3.9721  -17.5007 C   0  0  0  0  0  0  0  0  0  0  0  0
   -7.6137    4.2870  -18.2528 C   0  0  0  0  0  0  0  0  0  0  0  0
   -6.5177    4.7887  -17.5860 C   0  0  0  0  0  0  0  0  0  0  0  0
  1  2  1  0
  2  3  1  0
  2  4  1  0
  2  5  1  0
  5  6  1  0
  6  7  1  0
  7  8  2  0
  7  9  1  0
  9 10  1  0
 10 11  2  0
 11 12  1  0
 12 13  2  0
 12 14  1  0
 14 15  1  0
 15 16  2  0
 16 17  1  0
 17 18  2  0
 18 19  1  0
 19 20  2  0
 19 21  1  0
 21 22  1  0
 22 23  1  0
 23 24  1  0
 24 25  1  0
 24 26  1  0
 24 27  1  0
 22 28  1  0
 11 29  1  0
 29 30  2  0
 30 31  1  0
 31 32  2  0
 32  6  1  0
 32 10  1  0
 20 15  1  0
 28 18  1  0
M  END
>  <name>  (1018) 
P126822

>  <alias>  (1018) 
None

>  <smina_score_min>  (1018) 
-10.134

>  <exports>  (1018) 
['/opt/xchem-fragalysis-2/maxwin/BulkDock/OUTPUTS/openbind_xx01zvns2b_c2_elabs_1LOUTNY.sdf', '/opt/xchem-fragalysis-2/maxwin/BulkDock/OUTPUTS/openbind_xx01zvns2b_c2_elabs_1LSYIIV.sdf']

>  <tags>  (1018) 
syndirella_placed,openbind_xx01zvns2b_c2_elabs,openbind_xx01zvns2b_c2_elabs_scored_6.2plus,syndirella_product,openbind_xx01zvns2b_c2_elabs_scored,openbind_xx01zvns2b_c2_elabs_scored_top80percent,BulkDock Fragalysis export

>  <subsites>  (1018) 
1 - Z4590/B/203/1

>  <smiles>  (1018) 
CC(C)(C)Cn1c(=O)[nH]c2c(C(=O)Nc3ccc4c(c3)CN(CC(F)(F)F)C4)cccc21

>  <HIPPO Pose ID>  (1018) 
126822

>  <energy_score>  (1018) 
-42.69527

>  <inchikey>  (1018) 
BVKFNURFQARVAT-UHFFFAOYSA-N

>  <gnina_score_min>  (1018) 
6.286

>  <gnina_score>  (1018) 
6.148

>  <ref_mols>  (1018) 
Z3503a

>  <HIPPO Compound ID>  (1018) 
189260

>  <distance_score>  (1018) 
0.60891

>  <rmsd(smina/fragmenstein)>  (1018) 
1.096

>  <ref_pdb>  (1018) 
Z3503a

>  <inspiration_score>  (1018) 
None

$$$$
P126823
     RDKit          3D

 32 35  0  0  0  0  0  0  0  0999 V2000
   -8.2874    5.2814   -3.7241 C   0  0  0  0  0  0  0  0  0  0  0  0
   -8.6455    4.0363   -4.3048 O   0  0  0  0  0  0  0  0  0  0  0  0
  -10.0336    3.9895   -4.6315 C   0  0  0  0  0  0  0  0  0  0  0  0
  -10.4417    2.6555   -5.2440 C   0  0  0  0  0  0  0  0  0  0  0  0
   -9.5683    2.1018   -6.3632 C   0  0  0  0  0  0  0  0  0  0  0  0
   -9.6086    2.8983   -7.5743 N   0  0  0  0  0  0  0  0  0  0  0  0
   -8.6750    4.0415   -7.5532 C   0  0  0  0  0  0  0  0  0  0  0  0
   -8.3775    4.2668   -8.9964 C   0  0  0  0  0  0  0  0  0  0  0  0
   -7.8896    5.3922   -9.6203 C   0  0  0  0  0  0  0  0  0  0  0  0
   -7.7680    5.3510  -11.0054 C   0  0  0  0  0  0  0  0  0  0  0  0
   -8.1207    4.1967  -11.7302 C   0  0  0  0  0  0  0  0  0  0  0  0
   -8.0002    4.1812  -13.1099 N   0  0  0  0  0  0  0  0  0  0  0  0
   -7.5051    5.2650  -14.0817 C   0  0  0  0  0  0  0  0  0  0  0  0
   -7.0472    6.3171  -13.8718 O   0  0  0  0  0  0  0  0  0  0  0  0
   -7.5539    4.8092  -15.4790 C   0  0  0  0  0  0  0  0  0  0  0  0
   -8.7023    4.2945  -16.0830 C   0  0  0  0  0  0  0  0  0  0  0  0
   -8.7042    4.0475  -17.4695 C   0  0  0  0  0  0  0  0  0  0  0  0
   -7.5810    4.3391  -18.2641 C   0  0  0  0  0  0  0  0  0  0  0  0
   -6.4557    4.8359  -17.6427 C   0  0  0  0  0  0  0  0  0  0  0  0
   -6.4414    5.0189  -16.2660 C   0  0  0  0  0  0  0  0  0  0  0  0
   -5.1605    5.4128  -15.8881 N   0  0  0  0  0  0  0  0  0  0  0  0
   -4.3527    5.4721  -17.0176 C   0  0  0  0  0  0  0  0  0  0  0  0
   -3.1573    5.7078  -17.0263 O   0  0  0  0  0  0  0  0  0  0  0  0
   -5.1828    5.2081  -18.1240 N   0  0  0  0  0  0  0  0  0  0  0  0
   -4.8118    5.4777  -19.4927 C   0  0  0  0  0  0  0  0  0  0  0  0
   -4.5694    6.9897  -19.8359 C   0  0  0  0  0  0  0  0  0  0  0  0
   -3.1510    7.4662  -19.4717 C   0  0  0  0  0  0  0  0  0  0  0  0
   -5.5878    7.8891  -19.1315 C   0  0  0  0  0  0  0  0  0  0  0  0
   -4.7269    7.1875  -21.3535 C   0  0  0  0  0  0  0  0  0  0  0  0
   -8.5860    3.0563  -11.0820 C   0  0  0  0  0  0  0  0  0  0  0  0
   -8.7162    3.1173   -9.7120 C   0  0  0  0  0  0  0  0  0  0  0  0
   -9.2261    2.0922   -8.7567 C   0  0  0  0  0  0  0  0  0  0  0  0
  1  2  1  0
  2  3  1  0
  3  4  1  0
  4  5  1  0
  5  6  1  0
  6  7  1  0
  7  8  1  0
  8  9  2  0
  9 10  1  0
 10 11  2  0
 11 12  1  0
 12 13  1  0
 13 14  2  0
 13 15  1  0
 15 16  2  0
 16 17  1  0
 17 18  2  0
 18 19  1  0
 19 20  2  0
 20 21  1  0
 21 22  1  0
 22 23  2  0
 22 24  1  0
 24 25  1  0
 25 26  1  0
 26 27  1  0
 26 28  1  0
 26 29  1  0
 11 30  1  0
 30 31  2  0
 31 32  1  0
 32  6  1  0
 31  8  1  0
 20 15  1  0
 24 19  1  0
M  END
>  <name>  (1019) 
P126823

>  <alias>  (1019) 
None

>  <smina_score_min>  (1019) 
-8.896

>  <exports>  (1019) 
['/opt/xchem-fragalysis-2/maxwin/BulkDock/OUTPUTS/openbind_xx01zvns2b_c2_elabs_1LOUTNY.sdf', '/opt/xchem-fragalysis-2/maxwin/BulkDock/OUTPUTS/openbind_xx01zvns2b_c2_elabs_1LSYIIV.sdf']

>  <tags>  (1019) 
syndirella_placed,openbind_xx01zvns2b_c2_elabs,openbind_xx01zvns2b_c2_elabs_scored_6.2plus,syndirella_product,openbind_xx01zvns2b_c2_elabs_scored,openbind_xx01zvns2b_c2_elabs_scored_top80percent,BulkDock Fragalysis export

>  <subsites>  (1019) 
1 - Z4590/B/203/1

>  <smiles>  (1019) 
COCCCN1Cc2ccc(NC(=O)c3cccc4c3[nH]c(=O)n4CC(C)(C)C)cc2C1

>  <HIPPO Pose ID>  (1019) 
126823

>  <energy_score>  (1019) 
-46.212268

>  <inchikey>  (1019) 
OYSXIERGTYGCBH-UHFFFAOYSA-N

>  <gnina_score_min>  (1019) 
6.317

>  <gnina_score>  (1019) 
6.099

>  <ref_mols>  (1019) 
Z3503a

>  <HIPPO Compound ID>  (1019) 
189261

>  <distance_score>  (1019) 
0.589997

>  <rmsd(smina/fragmenstein)>  (1019) 
0.776

>  <ref_pdb>  (1019) 
Z3503a

>  <inspiration_score>  (1019) 
None

$$$$
P126841
     RDKit          3D

 32 35  0  0  0  0  0  0  0  0999 V2000
  -12.2782    2.3002   -5.0940 C   0  0  0  0  0  0  0  0  0  0  0  0
  -10.8254    2.6020   -4.9124 C   0  0  0  0  0  0  0  0  0  0  0  0
  -10.2789    3.0258   -6.2328 C   0  0  0  0  0  0  0  0  0  0  0  0
   -8.8415    2.6294   -6.3708 C   0  0  0  0  0  0  0  0  0  0  0  0
   -8.4033    3.1335   -7.6292 N   0  0  0  0  0  0  0  0  0  0  0  0
   -8.6289    2.3877   -8.8566 C   0  0  0  0  0  0  0  0  0  0  0  0
   -8.3439    3.4317   -9.8719 C   0  0  0  0  0  0  0  0  0  0  0  0
   -8.3188    3.3325  -11.2418 C   0  0  0  0  0  0  0  0  0  0  0  0
   -8.0356    4.4989  -11.9483 C   0  0  0  0  0  0  0  0  0  0  0  0
   -7.9062    4.4290  -13.3184 N   0  0  0  0  0  0  0  0  0  0  0  0
   -7.6700    5.5351  -14.3549 C   0  0  0  0  0  0  0  0  0  0  0  0
   -7.4705    6.6718  -14.2124 O   0  0  0  0  0  0  0  0  0  0  0  0
   -7.6724    4.9701  -15.7050 C   0  0  0  0  0  0  0  0  0  0  0  0
   -8.8442    4.2959  -16.1112 C   0  0  0  0  0  0  0  0  0  0  0  0
   -8.9838    3.8166  -17.4177 C   0  0  0  0  0  0  0  0  0  0  0  0
   -7.9561    3.9922  -18.3338 C   0  0  0  0  0  0  0  0  0  0  0  0
   -6.8118    4.6266  -17.8925 C   0  0  0  0  0  0  0  0  0  0  0  0
   -5.6771    4.8951  -18.6399 N   0  0  0  0  0  0  0  0  0  0  0  0
   -4.7391    5.5328  -17.8338 C   0  0  0  0  0  0  0  0  0  0  0  0
   -3.6273    5.8910  -18.1891 O   0  0  0  0  0  0  0  0  0  0  0  0
   -5.3310    5.6971  -16.5586 N   0  0  0  0  0  0  0  0  0  0  0  0
   -4.7524    6.5903  -15.5773 C   0  0  0  0  0  0  0  0  0  0  0  0
   -3.7626    5.9859  -14.5463 C   0  0  0  0  0  0  0  0  0  0  0  0
   -4.4643    5.0385  -13.5678 C   0  0  0  0  0  0  0  0  0  0  0  0
   -2.6088    5.2459  -15.2361 C   0  0  0  0  0  0  0  0  0  0  0  0
   -3.1593    7.1472  -13.7270 C   0  0  0  0  0  0  0  0  0  0  0  0
   -6.6305    5.1226  -16.5990 C   0  0  0  0  0  0  0  0  0  0  0  0
   -7.8281    5.7346  -11.2996 C   0  0  0  0  0  0  0  0  0  0  0  0
   -7.8427    5.8233   -9.9192 C   0  0  0  0  0  0  0  0  0  0  0  0
   -8.0807    4.6538   -9.2453 C   0  0  0  0  0  0  0  0  0  0  0  0
   -8.1201    4.4622   -7.8081 C   0  0  0  0  0  0  0  0  0  0  0  0
   -7.9665    5.3384   -6.9776 O   0  0  0  0  0  0  0  0  0  0  0  0
  1  2  1  0
  2  3  1  0
  3  4  1  0
  4  5  1  0
  5  6  1  0
  6  7  1  0
  7  8  2  0
  8  9  1  0
  9 10  1  0
 10 11  1  0
 11 12  2  0
 11 13  1  0
 13 14  2  0
 14 15  1  0
 15 16  2  0
 16 17  1  0
 17 18  1  0
 18 19  1  0
 19 20  2  0
 19 21  1  0
 21 22  1  0
 22 23  1  0
 23 24  1  0
 23 25  1  0
 23 26  1  0
 21 27  1  0
  9 28  2  0
 28 29  1  0
 29 30  2  0
 30 31  1  0
 31 32  2  0
 31  5  1  0
 30  7  1  0
 27 13  1  0
 27 17  2  0
M  END
>  <name>  (1020) 
P126841

>  <alias>  (1020) 
None

>  <smina_score_min>  (1020) 
-8.012

>  <exports>  (1020) 
['/opt/xchem-fragalysis-2/maxwin/BulkDock/OUTPUTS/openbind_xx01zvns2b_c2_elabs_1LOUTNY.sdf', '/opt/xchem-fragalysis-2/maxwin/BulkDock/OUTPUTS/openbind_xx01zvns2b_c2_elabs_1LSYIIV.sdf']

>  <tags>  (1020) 
syndirella_placed,openbind_xx01zvns2b_c2_elabs,openbind_xx01zvns2b_c2_elabs_scored_6.2plus,syndirella_product,openbind_xx01zvns2b_c2_elabs_scored,openbind_xx01zvns2b_c2_elabs_scored_top80percent,BulkDock Fragalysis export

>  <subsites>  (1020) 
1 - Z4590/B/203/1

>  <smiles>  (1020) 
CCCCN1Cc2cc(NC(=O)c3cccc4[nH]c(=O)n(CC(C)(C)C)c34)ccc2C1=O

>  <HIPPO Pose ID>  (1020) 
126841

>  <energy_score>  (1020) 
-62.986962

>  <inchikey>  (1020) 
PRKBUSXNIQCOKY-UHFFFAOYSA-N

>  <gnina_score_min>  (1020) 
6.258

>  <gnina_score>  (1020) 
6.311

>  <ref_mols>  (1020) 
Z3503a

>  <HIPPO Compound ID>  (1020) 
189272

>  <distance_score>  (1020) 
0.864604

>  <rmsd(smina/fragmenstein)>  (1020) 
1.192

>  <ref_pdb>  (1020) 
Z3503a

>  <inspiration_score>  (1020) 
None

$$$$
P126914
     RDKit          3D

 27 30  0  0  0  0  0  0  0  0999 V2000
   -9.2657    2.7218   -6.1322 C   0  0  0  0  0  0  0  0  0  0  0  0
   -8.4256    3.1516   -7.2278 N   0  0  0  0  0  0  0  0  0  0  0  0
   -8.8327    2.5720   -8.5250 C   0  0  0  0  0  0  0  0  0  0  0  0
   -8.4622    3.5995   -9.5449 C   0  0  0  0  0  0  0  0  0  0  0  0
   -8.4159    3.4744  -10.9296 C   0  0  0  0  0  0  0  0  0  0  0  0
   -7.9612    4.5630  -11.6803 C   0  0  0  0  0  0  0  0  0  0  0  0
   -7.8404    4.4321  -13.0638 N   0  0  0  0  0  0  0  0  0  0  0  0
   -7.1858    5.3709  -14.1110 C   0  0  0  0  0  0  0  0  0  0  0  0
   -6.7154    6.4337  -13.9865 O   0  0  0  0  0  0  0  0  0  0  0  0
   -7.2864    4.8223  -15.4878 C   0  0  0  0  0  0  0  0  0  0  0  0
   -8.5622    4.4702  -15.9585 C   0  0  0  0  0  0  0  0  0  0  0  0
   -8.7521    4.1607  -17.3034 C   0  0  0  0  0  0  0  0  0  0  0  0
  -10.4926    4.0725  -17.9611 Br  0  0  0  0  0  0  0  0  0  0  0  0
   -7.6679    4.1372  -18.1502 C   0  0  0  0  0  0  0  0  0  0  0  0
   -6.4145    4.5052  -17.6786 C   0  0  0  0  0  0  0  0  0  0  0  0
   -6.1902    4.8716  -16.3604 C   0  0  0  0  0  0  0  0  0  0  0  0
   -5.5080    4.4697  -18.8314 C   0  0  0  0  0  0  0  0  0  0  0  0
   -4.3309    4.7504  -18.8414 O   0  0  0  0  0  0  0  0  0  0  0  0
   -6.3821    3.9935  -20.0326 C   0  0  0  0  0  0  0  0  0  0  0  0
   -6.0046    3.7993  -21.1685 O   0  0  0  0  0  0  0  0  0  0  0  0
   -7.6442    3.8266  -19.5090 N   0  0  0  0  0  0  0  0  0  0  0  0
   -7.6300    5.7658  -11.0403 C   0  0  0  0  0  0  0  0  0  0  0  0
   -7.7167    5.8885   -9.6484 C   0  0  0  0  0  0  0  0  0  0  0  0
   -8.1121    4.7881   -8.9039 C   0  0  0  0  0  0  0  0  0  0  0  0
   -8.1146    4.5891   -7.4011 C   0  0  0  0  0  0  0  0  0  0  0  0
   -6.6895    4.8404   -6.8670 C   0  0  0  0  0  0  0  0  0  0  0  0
   -9.0498    5.5541   -6.6574 C   0  0  0  0  0  0  0  0  0  0  0  0
  1  2  1  0
  2  3  1  0
  3  4  1  0
  4  5  2  0
  5  6  1  0
  6  7  1  0
  7  8  1  0
  8  9  2  0
  8 10  1  0
 10 11  2  0
 11 12  1  0
 12 13  1  0
 12 14  2  0
 14 15  1  0
 15 16  2  0
 15 17  1  0
 17 18  2  0
 17 19  1  0
 19 20  2  0
 19 21  1  0
  6 22  2  0
 22 23  1  0
 23 24  2  0
 24 25  1  0
 25 26  1  0
 25 27  1  0
 25  2  1  0
 24  4  1  0
 16 10  1  0
 21 14  1  0
M  END
>  <name>  (1021) 
P126914

>  <alias>  (1021) 
None

>  <smina_score_min>  (1021) 
-8.942

>  <exports>  (1021) 
['/opt/xchem-fragalysis-2/maxwin/BulkDock/OUTPUTS/openbind_xx01zvns2b_c2_elabs_1LOUTNY.sdf', '/opt/xchem-fragalysis-2/maxwin/BulkDock/OUTPUTS/openbind_xx01zvns2b_c2_elabs_1LSYIIV.sdf']

>  <tags>  (1021) 
syndirella_placed,openbind_xx01zvns2b_c2_elabs,openbind_xx01zvns2b_c2_elabs_scored_6.2plus,syndirella_product,openbind_xx01zvns2b_c2_elabs_scored,openbind_xx01zvns2b_c2_elabs_scored_top80percent,BulkDock Fragalysis export

>  <subsites>  (1021) 
1 - Z4590/B/203/1

>  <smiles>  (1021) 
CN1Cc2cc(NC(=O)c3cc(Br)c4c(c3)C(=O)C(=O)N4)ccc2C1(C)C

>  <HIPPO Pose ID>  (1021) 
126914

>  <energy_score>  (1021) 
-42.501899

>  <inchikey>  (1021) 
JVYSTCANHXONLF-UHFFFAOYSA-N

>  <gnina_score_min>  (1021) 
6.212

>  <gnina_score>  (1021) 
6.186

>  <ref_mols>  (1021) 
Z4756a

>  <HIPPO Compound ID>  (1021) 
184299

>  <distance_score>  (1021) 
0.525706

>  <rmsd(smina/fragmenstein)>  (1021) 
0.287

>  <ref_pdb>  (1021) 
Z4756a

>  <inspiration_score>  (1021) 
None

$$$$
P126916
     RDKit          3D

 27 30  0  0  0  0  0  0  0  0999 V2000
  -11.3876    2.8524   -5.3554 C   0  0  0  0  0  0  0  0  0  0  0  0
  -10.3715    1.8582   -5.8862 C   0  0  0  0  0  0  0  0  0  0  0  0
   -9.0353    2.5094   -6.2438 C   0  0  0  0  0  0  0  0  0  0  0  0
   -9.1569    3.3026   -7.4608 N   0  0  0  0  0  0  0  0  0  0  0  0
   -8.1885    4.4035   -7.5649 C   0  0  0  0  0  0  0  0  0  0  0  0
   -8.0224    4.6048   -9.0365 C   0  0  0  0  0  0  0  0  0  0  0  0
   -7.4668    5.6679   -9.7201 C   0  0  0  0  0  0  0  0  0  0  0  0
   -7.3601    5.5734  -11.1095 C   0  0  0  0  0  0  0  0  0  0  0  0
   -7.8046    4.4286  -11.7895 C   0  0  0  0  0  0  0  0  0  0  0  0
   -7.6574    4.3190  -13.1692 N   0  0  0  0  0  0  0  0  0  0  0  0
   -6.9460    5.2502  -14.1820 C   0  0  0  0  0  0  0  0  0  0  0  0
   -6.3077    6.2128  -14.0066 O   0  0  0  0  0  0  0  0  0  0  0  0
   -7.1649    4.8036  -15.5805 C   0  0  0  0  0  0  0  0  0  0  0  0
   -8.4653    4.4785  -16.0053 C   0  0  0  0  0  0  0  0  0  0  0  0
   -8.7050    4.1719  -17.3439 C   0  0  0  0  0  0  0  0  0  0  0  0
  -10.4659    4.0688  -17.9442 Br  0  0  0  0  0  0  0  0  0  0  0  0
   -7.6491    4.1370  -18.2262 C   0  0  0  0  0  0  0  0  0  0  0  0
   -6.3784    4.4973  -17.7989 C   0  0  0  0  0  0  0  0  0  0  0  0
   -6.1018    4.8499  -16.4914 C   0  0  0  0  0  0  0  0  0  0  0  0
   -5.5054    4.4435  -18.9729 C   0  0  0  0  0  0  0  0  0  0  0  0
   -4.3267    4.7133  -19.0179 O   0  0  0  0  0  0  0  0  0  0  0  0
   -6.4147    3.9580  -20.1386 C   0  0  0  0  0  0  0  0  0  0  0  0
   -6.0654    3.7476  -21.2803 O   0  0  0  0  0  0  0  0  0  0  0  0
   -7.6643    3.8068  -19.5801 N   0  0  0  0  0  0  0  0  0  0  0  0
   -8.3931    3.3711  -11.0873 C   0  0  0  0  0  0  0  0  0  0  0  0
   -8.4917    3.4774   -9.7094 C   0  0  0  0  0  0  0  0  0  0  0  0
   -9.0269    2.5013   -8.7055 C   0  0  0  0  0  0  0  0  0  0  0  0
  1  2  1  0
  2  3  1  0
  3  4  1  0
  4  5  1  0
  5  6  1  0
  6  7  2  0
  7  8  1  0
  8  9  2  0
  9 10  1  0
 10 11  1  0
 11 12  2  0
 11 13  1  0
 13 14  2  0
 14 15  1  0
 15 16  1  0
 15 17  2  0
 17 18  1  0
 18 19  2  0
 18 20  1  0
 20 21  2  0
 20 22  1  0
 22 23  2  0
 22 24  1  0
  9 25  1  0
 25 26  2  0
 26 27  1  0
 27  4  1  0
 26  6  1  0
 19 13  1  0
 24 17  1  0
M  END
>  <name>  (1022) 
P126916

>  <alias>  (1022) 
None

>  <smina_score_min>  (1022) 
-9.321

>  <exports>  (1022) 
['/opt/xchem-fragalysis-2/maxwin/BulkDock/OUTPUTS/openbind_xx01zvns2b_c2_elabs_1LOUTNY.sdf', '/opt/xchem-fragalysis-2/maxwin/BulkDock/OUTPUTS/openbind_xx01zvns2b_c2_elabs_1LSYIIV.sdf']

>  <tags>  (1022) 
syndirella_placed,openbind_xx01zvns2b_c2_elabs,openbind_xx01zvns2b_c2_elabs_scored_6.2plus,syndirella_product,openbind_xx01zvns2b_c2_elabs_scored,openbind_xx01zvns2b_c2_elabs_scored_top80percent,BulkDock Fragalysis export

>  <subsites>  (1022) 
1 - Z4590/B/203/1

>  <smiles>  (1022) 
CCCN1Cc2ccc(NC(=O)c3cc(Br)c4c(c3)C(=O)C(=O)N4)cc2C1

>  <HIPPO Pose ID>  (1022) 
126916

>  <energy_score>  (1022) 
-35.034102

>  <inchikey>  (1022) 
XKVSRAHSZWPPER-UHFFFAOYSA-N

>  <gnina_score_min>  (1022) 
6.31

>  <gnina_score>  (1022) 
6.183

>  <ref_mols>  (1022) 
Z4756a

>  <HIPPO Compound ID>  (1022) 
184328

>  <distance_score>  (1022) 
0.56532

>  <rmsd(smina/fragmenstein)>  (1022) 
0.328

>  <ref_pdb>  (1022) 
Z4756a

>  <inspiration_score>  (1022) 
None

$$$$
P126926
     RDKit          3D

 27 30  0  0  0  0  0  0  0  0999 V2000
  -11.2400    2.4925   -4.8496 C   0  0  0  0  0  0  0  0  0  0  0  0
  -10.5750    2.9628   -6.1150 C   0  0  0  0  0  0  0  0  0  0  0  0
   -9.0765    2.6864   -6.1078 C   0  0  0  0  0  0  0  0  0  0  0  0
   -8.3762    3.2062   -7.2620 N   0  0  0  0  0  0  0  0  0  0  0  0
   -8.3251    4.6569   -7.4178 C   0  0  0  0  0  0  0  0  0  0  0  0
   -8.1525    4.8580   -8.8854 C   0  0  0  0  0  0  0  0  0  0  0  0
   -7.8497    6.0202   -9.5633 C   0  0  0  0  0  0  0  0  0  0  0  0
   -7.7118    5.9462  -10.9451 C   0  0  0  0  0  0  0  0  0  0  0  0
   -7.8933    4.7283  -11.6192 C   0  0  0  0  0  0  0  0  0  0  0  0
   -7.7152    4.6650  -12.9915 N   0  0  0  0  0  0  0  0  0  0  0  0
   -7.1161    5.6940  -13.9731 C   0  0  0  0  0  0  0  0  0  0  0  0
   -6.7489    6.7869  -13.7926 O   0  0  0  0  0  0  0  0  0  0  0  0
   -7.1049    5.1622  -15.3485 C   0  0  0  0  0  0  0  0  0  0  0  0
   -8.2821    4.6010  -15.8695 C   0  0  0  0  0  0  0  0  0  0  0  0
   -8.3323    4.2265  -17.2055 C   0  0  0  0  0  0  0  0  0  0  0  0
   -9.8570    3.7648  -17.8280 Cl  0  0  0  0  0  0  0  0  0  0  0  0
   -7.1883    4.3890  -17.9784 C   0  0  0  0  0  0  0  0  0  0  0  0
   -6.0342    4.9780  -17.4626 C   0  0  0  0  0  0  0  0  0  0  0  0
   -5.9725    5.3723  -16.1430 C   0  0  0  0  0  0  0  0  0  0  0  0
   -4.9935    5.1037  -18.5376 C   0  0  0  0  0  0  0  0  0  0  0  0
   -5.6777    4.4612  -19.7385 C   0  0  0  0  0  0  0  0  0  0  0  0
   -5.2001    4.3097  -20.8541 O   0  0  0  0  0  0  0  0  0  0  0  0
   -6.9318    4.0584  -19.3052 N   0  0  0  0  0  0  0  0  0  0  0  0
   -7.8037    3.3004  -20.1130 C   0  0  0  0  0  0  0  0  0  0  0  0
   -8.2468    3.5664  -10.9300 C   0  0  0  0  0  0  0  0  0  0  0  0
   -8.3558    3.6496   -9.5552 C   0  0  0  0  0  0  0  0  0  0  0  0
   -8.6938    2.5833   -8.5609 C   0  0  0  0  0  0  0  0  0  0  0  0
  1  2  1  0
  2  3  1  0
  3  4  1  0
  4  5  1  0
  5  6  1  0
  6  7  2  0
  7  8  1  0
  8  9  2  0
  9 10  1  0
 10 11  1  0
 11 12  2  0
 11 13  1  0
 13 14  2  0
 14 15  1  0
 15 16  1  0
 15 17  2  0
 17 18  1  0
 18 19  2  0
 18 20  1  0
 20 21  1  0
 21 22  2  0
 21 23  1  0
 23 24  1  0
  9 25  1  0
 25 26  2  0
 26 27  1  0
 27  4  1  0
 26  6  1  0
 19 13  1  0
 23 17  1  0
M  END
>  <name>  (1023) 
P126926

>  <alias>  (1023) 
None

>  <smina_score_min>  (1023) 
-8.711

>  <exports>  (1023) 
['/opt/xchem-fragalysis-2/maxwin/BulkDock/OUTPUTS/openbind_xx01zvns2b_c2_elabs_1LOUTNY.sdf', '/opt/xchem-fragalysis-2/maxwin/BulkDock/OUTPUTS/openbind_xx01zvns2b_c2_elabs_1LSYIIV.sdf']

>  <tags>  (1023) 
syndirella_placed,openbind_xx01zvns2b_c2_elabs,openbind_xx01zvns2b_c2_elabs_scored_6.2plus,syndirella_product,openbind_xx01zvns2b_c2_elabs_scored,openbind_xx01zvns2b_c2_elabs_scored_top80percent,BulkDock Fragalysis export

>  <subsites>  (1023) 
1 - Z4590/B/203/1

>  <smiles>  (1023) 
CCCN1Cc2ccc(NC(=O)c3cc(Cl)c4c(c3)CC(=O)N4C)cc2C1

>  <HIPPO Pose ID>  (1023) 
126926

>  <energy_score>  (1023) 
-24.510032

>  <inchikey>  (1023) 
GEXIWZILIMEJHZ-UHFFFAOYSA-N

>  <gnina_score_min>  (1023) 
6.204

>  <gnina_score>  (1023) 
6.269

>  <ref_mols>  (1023) 
Z4756a

>  <HIPPO Compound ID>  (1023) 
184291

>  <distance_score>  (1023) 
0.837382

>  <rmsd(smina/fragmenstein)>  (1023) 
0.705

>  <ref_pdb>  (1023) 
Z4756a

>  <inspiration_score>  (1023) 
None

$$$$
P126931
     RDKit          3D

 27 30  0  0  0  0  0  0  0  0999 V2000
  -10.4743    2.1419   -5.8944 C   0  0  0  0  0  0  0  0  0  0  0  0
   -9.0132    2.4579   -6.1440 C   0  0  0  0  0  0  0  0  0  0  0  0
   -8.7993    3.0934   -7.4276 N   0  0  0  0  0  0  0  0  0  0  0  0
   -8.8865    2.3606   -8.6844 C   0  0  0  0  0  0  0  0  0  0  0  0
   -8.4504    3.3839   -9.6822 C   0  0  0  0  0  0  0  0  0  0  0  0
   -8.3555    3.3012  -11.0625 C   0  0  0  0  0  0  0  0  0  0  0  0
   -7.8583    4.4109  -11.7622 C   0  0  0  0  0  0  0  0  0  0  0  0
   -7.7556    4.3360  -13.1481 N   0  0  0  0  0  0  0  0  0  0  0  0
   -7.1030    5.3086  -14.1629 C   0  0  0  0  0  0  0  0  0  0  0  0
   -6.6189    6.3592  -14.0008 O   0  0  0  0  0  0  0  0  0  0  0  0
   -7.2322    4.8077  -15.5520 C   0  0  0  0  0  0  0  0  0  0  0  0
   -8.5185    4.4706  -16.0066 C   0  0  0  0  0  0  0  0  0  0  0  0
   -8.7282    4.1640  -17.3477 C   0  0  0  0  0  0  0  0  0  0  0  0
  -10.4797    4.0750  -17.9732 Br  0  0  0  0  0  0  0  0  0  0  0  0
   -7.6539    4.1352  -18.2062 C   0  0  0  0  0  0  0  0  0  0  0  0
   -6.3931    4.4996  -17.7495 C   0  0  0  0  0  0  0  0  0  0  0  0
   -6.1474    4.8588  -16.4349 C   0  0  0  0  0  0  0  0  0  0  0  0
   -5.4983    4.4572  -18.9095 C   0  0  0  0  0  0  0  0  0  0  0  0
   -4.3202    4.7320  -18.9304 O   0  0  0  0  0  0  0  0  0  0  0  0
   -6.3851    3.9786  -20.0981 C   0  0  0  0  0  0  0  0  0  0  0  0
   -6.0175    3.7799  -21.2362 O   0  0  0  0  0  0  0  0  0  0  0  0
   -7.6433    3.8163  -19.5625 N   0  0  0  0  0  0  0  0  0  0  0  0
   -7.4934    5.5849  -11.0792 C   0  0  0  0  0  0  0  0  0  0  0  0
   -7.6147    5.6698   -9.6912 C   0  0  0  0  0  0  0  0  0  0  0  0
   -8.0851    4.5566   -9.0252 C   0  0  0  0  0  0  0  0  0  0  0  0
   -8.2770    4.3626   -7.5842 C   0  0  0  0  0  0  0  0  0  0  0  0
   -8.0082    5.1886   -6.7319 O   0  0  0  0  0  0  0  0  0  0  0  0
  1  2  1  0
  2  3  1  0
  3  4  1  0
  4  5  1  0
  5  6  2  0
  6  7  1  0
  7  8  1  0
  8  9  1  0
  9 10  2  0
  9 11  1  0
 11 12  2  0
 12 13  1  0
 13 14  1  0
 13 15  2  0
 15 16  1  0
 16 17  2  0
 16 18  1  0
 18 19  2  0
 18 20  1  0
 20 21  2  0
 20 22  1  0
  7 23  2  0
 23 24  1  0
 24 25  2  0
 25 26  1  0
 26 27  2  0
 26  3  1  0
 25  5  1  0
 17 11  1  0
 22 15  1  0
M  END
>  <name>  (1024) 
P126931

>  <alias>  (1024) 
None

>  <smina_score_min>  (1024) 
-9.346

>  <exports>  (1024) 
['/opt/xchem-fragalysis-2/maxwin/BulkDock/OUTPUTS/openbind_xx01zvns2b_c2_elabs_1LOUTNY.sdf', '/opt/xchem-fragalysis-2/maxwin/BulkDock/OUTPUTS/openbind_xx01zvns2b_c2_elabs_1LSYIIV.sdf']

>  <tags>  (1024) 
syndirella_placed,openbind_xx01zvns2b_c2_elabs,openbind_xx01zvns2b_c2_elabs_scored_6.2plus,syndirella_product,openbind_xx01zvns2b_c2_elabs_scored,openbind_xx01zvns2b_c2_elabs_scored_top80percent,BulkDock Fragalysis export

>  <subsites>  (1024) 
1 - Z4590/B/203/1

>  <smiles>  (1024) 
CCN1Cc2cc(NC(=O)c3cc(Br)c4c(c3)C(=O)C(=O)N4)ccc2C1=O

>  <HIPPO Pose ID>  (1024) 
126931

>  <energy_score>  (1024) 
-26.603409

>  <inchikey>  (1024) 
LDCDDIRMRCCRQM-UHFFFAOYSA-N

>  <gnina_score_min>  (1024) 
6.233

>  <gnina_score>  (1024) 
6.13

>  <ref_mols>  (1024) 
Z4756a

>  <HIPPO Compound ID>  (1024) 
184296

>  <distance_score>  (1024) 
0.489972

>  <rmsd(smina/fragmenstein)>  (1024) 
0.318

>  <ref_pdb>  (1024) 
Z4756a

>  <inspiration_score>  (1024) 
None

$$$$
P126966
     RDKit          3D

 28 32  0  0  0  0  0  0  0  0999 V2000
   -9.2894    4.2453   -2.6618 C   0  0  0  0  0  0  0  0  0  0  0  0
   -9.8129    3.7158   -3.9857 C   0  0  0  0  0  0  0  0  0  0  0  0
   -8.7414    3.7247   -5.0643 C   0  0  0  0  0  0  0  0  0  0  0  0
   -9.2560    3.0310   -6.3367 C   0  0  0  0  0  0  0  0  0  0  0  0
   -8.3959    3.3279   -7.4698 N   0  0  0  0  0  0  0  0  0  0  0  0
   -8.2868    4.7591   -7.7809 C   0  0  0  0  0  0  0  0  0  0  0  0
   -8.1710    4.8285   -9.2600 C   0  0  0  0  0  0  0  0  0  0  0  0
   -7.8579    5.9233  -10.0372 C   0  0  0  0  0  0  0  0  0  0  0  0
   -7.7994    5.7421  -11.4139 C   0  0  0  0  0  0  0  0  0  0  0  0
   -8.0670    4.4883  -11.9904 C   0  0  0  0  0  0  0  0  0  0  0  0
   -7.9611    4.3362  -13.3683 N   0  0  0  0  0  0  0  0  0  0  0  0
   -7.4866    5.3286  -14.4545 C   0  0  0  0  0  0  0  0  0  0  0  0
   -7.0377    6.4025  -14.3549 O   0  0  0  0  0  0  0  0  0  0  0  0
   -7.6002    4.7628  -15.8212 C   0  0  0  0  0  0  0  0  0  0  0  0
   -8.7759    4.1187  -16.2540 C   0  0  0  0  0  0  0  0  0  0  0  0
   -8.8981    3.6887  -17.5759 C   0  0  0  0  0  0  0  0  0  0  0  0
   -7.8277    3.9175  -18.4126 C   0  0  0  0  0  0  0  0  0  0  0  0
   -6.6571    4.5791  -18.0124 C   0  0  0  0  0  0  0  0  0  0  0  0
   -6.5368    5.0037  -16.7043 C   0  0  0  0  0  0  0  0  0  0  0  0
   -5.7578    4.6826  -19.2008 C   0  0  0  0  0  0  0  0  0  0  0  0
   -4.2590    4.7525  -19.1229 C   0  0  0  0  0  0  0  0  0  0  0  0
   -5.0431    5.9723  -19.5235 C   0  0  0  0  0  0  0  0  0  0  0  0
   -6.4941    3.9292  -20.2810 C   0  0  0  0  0  0  0  0  0  0  0  0
   -6.0743    3.7182  -21.4085 O   0  0  0  0  0  0  0  0  0  0  0  0
   -7.7109    3.5375  -19.7487 N   0  0  0  0  0  0  0  0  0  0  0  0
   -8.4135    3.3945  -11.1897 C   0  0  0  0  0  0  0  0  0  0  0  0
   -8.4498    3.5819   -9.8168 C   0  0  0  0  0  0  0  0  0  0  0  0
   -8.7830    2.6191   -8.7157 C   0  0  0  0  0  0  0  0  0  0  0  0
  1  2  1  0
  2  3  1  0
  3  4  1  0
  4  5  1  0
  5  6  1  0
  6  7  1  0
  7  8  2  0
  8  9  1  0
  9 10  2  0
 10 11  1  0
 11 12  1  0
 12 13  2  0
 12 14  1  0
 14 15  2  0
 15 16  1  0
 16 17  2  0
 17 18  1  0
 18 19  2  0
 18 20  1  0
 20 21  1  0
 21 22  1  0
 20 23  1  0
 23 24  2  0
 23 25  1  0
 10 26  1  0
 26 27  2  0
 27 28  1  0
 28  5  1  0
 27  7  1  0
 19 14  1  0
 22 20  1  0
 25 17  1  0
M  END
>  <name>  (1025) 
P126966

>  <alias>  (1025) 
None

>  <smina_score_min>  (1025) 
-9.9

>  <exports>  (1025) 
['/opt/xchem-fragalysis-2/maxwin/BulkDock/OUTPUTS/openbind_xx01zvns2b_c2_elabs_1LOUTNY.sdf', '/opt/xchem-fragalysis-2/maxwin/BulkDock/OUTPUTS/openbind_xx01zvns2b_c2_elabs_1LSYIIV.sdf']

>  <tags>  (1025) 
syndirella_placed,openbind_xx01zvns2b_c2_elabs,openbind_xx01zvns2b_c2_elabs_scored_6.2plus,syndirella_product,openbind_xx01zvns2b_c2_elabs_scored,openbind_xx01zvns2b_c2_elabs_scored_top80percent,BulkDock Fragalysis export

>  <subsites>  (1025) 
1 - Z4590/B/203/1

>  <smiles>  (1025) 
CCCCN1Cc2ccc(NC(=O)c3ccc4c(c3)C3(CC3)C(=O)N4)cc2C1

>  <HIPPO Pose ID>  (1025) 
126966

>  <energy_score>  (1025) 
-36.730993

>  <inchikey>  (1025) 
QCRBFKYBGRUZHY-UHFFFAOYSA-N

>  <gnina_score_min>  (1025) 
6.263

>  <gnina_score>  (1025) 
6.146

>  <ref_mols>  (1025) 
Z4756a

>  <HIPPO Compound ID>  (1025) 
184418

>  <distance_score>  (1025) 
0.40112

>  <rmsd(smina/fragmenstein)>  (1025) 
0.584

>  <ref_pdb>  (1025) 
Z4756a

>  <inspiration_score>  (1025) 
None

$$$$
P126978
     RDKit          3D

 28 31  0  0  0  0  0  0  0  0999 V2000
   -7.8671    3.3403  -20.0584 C   0  0  0  0  0  0  0  0  0  0  0  0
   -6.9800    4.0859  -19.2531 N   0  0  0  0  0  0  0  0  0  0  0  0
   -5.7191    4.4649  -19.6918 C   0  0  0  0  0  0  0  0  0  0  0  0
   -5.2485    4.3076  -20.8096 O   0  0  0  0  0  0  0  0  0  0  0  0
   -5.0158    5.0891  -18.4918 C   0  0  0  0  0  0  0  0  0  0  0  0
   -6.0451    4.9619  -17.4057 C   0  0  0  0  0  0  0  0  0  0  0  0
   -5.9582    5.3255  -16.0775 C   0  0  0  0  0  0  0  0  0  0  0  0
   -7.0772    5.1040  -15.2668 C   0  0  0  0  0  0  0  0  0  0  0  0
   -7.0492    5.5761  -13.8683 C   0  0  0  0  0  0  0  0  0  0  0  0
   -6.6998    6.6686  -13.6528 O   0  0  0  0  0  0  0  0  0  0  0  0
   -7.5466    4.4756  -12.9054 N   0  0  0  0  0  0  0  0  0  0  0  0
   -7.7984    4.5178  -11.5410 C   0  0  0  0  0  0  0  0  0  0  0  0
   -7.6944    5.7287  -10.8401 C   0  0  0  0  0  0  0  0  0  0  0  0
   -7.9378    5.7785   -9.4698 C   0  0  0  0  0  0  0  0  0  0  0  0
   -8.2686    4.6018   -8.8258 C   0  0  0  0  0  0  0  0  0  0  0  0
   -8.3796    3.3997   -9.5158 C   0  0  0  0  0  0  0  0  0  0  0  0
   -8.1606    3.3389  -10.8819 C   0  0  0  0  0  0  0  0  0  0  0  0
   -8.7741    2.3142   -8.5652 C   0  0  0  0  0  0  0  0  0  0  0  0
   -8.7246    2.9342   -7.2113 N   0  0  0  0  0  0  0  0  0  0  0  0
   -9.8675    2.5162   -6.3889 C   0  0  0  0  0  0  0  0  0  0  0  0
  -10.0366    3.1591   -5.0068 C   0  0  0  0  0  0  0  0  0  0  0  0
  -10.1835    4.5095   -5.1096 F   0  0  0  0  0  0  0  0  0  0  0  0
  -11.2009    2.7172   -4.4625 F   0  0  0  0  0  0  0  0  0  0  0  0
   -8.6012    4.3925   -7.3882 C   0  0  0  0  0  0  0  0  0  0  0  0
   -8.2705    4.5723  -15.7832 C   0  0  0  0  0  0  0  0  0  0  0  0
   -8.3481    4.2349  -17.1296 C   0  0  0  0  0  0  0  0  0  0  0  0
   -9.8863    3.8071  -17.7465 Cl  0  0  0  0  0  0  0  0  0  0  0  0
   -7.2140    4.3989  -17.9171 C   0  0  0  0  0  0  0  0  0  0  0  0
  1  2  1  0
  2  3  1  0
  3  4  2  0
  3  5  1  0
  5  6  1  0
  6  7  2  0
  7  8  1  0
  8  9  1  0
  9 10  2  0
  9 11  1  0
 11 12  1  0
 12 13  2  0
 13 14  1  0
 14 15  2  0
 15 16  1  0
 16 17  2  0
 16 18  1  0
 18 19  1  0
 19 20  1  0
 20 21  1  0
 21 22  1  0
 21 23  1  0
 19 24  1  0
  8 25  2  0
 25 26  1  0
 26 27  1  0
 26 28  2  0
 28  2  1  0
 28  6  1  0
 17 12  1  0
 24 15  1  0
M  END
>  <name>  (1026) 
P126978

>  <alias>  (1026) 
None

>  <smina_score_min>  (1026) 
-9.315

>  <exports>  (1026) 
['/opt/xchem-fragalysis-2/maxwin/BulkDock/OUTPUTS/openbind_xx01zvns2b_c2_elabs_1LOUTNY.sdf', '/opt/xchem-fragalysis-2/maxwin/BulkDock/OUTPUTS/openbind_xx01zvns2b_c2_elabs_1LSYIIV.sdf']

>  <tags>  (1026) 
syndirella_placed,openbind_xx01zvns2b_c2_elabs,openbind_xx01zvns2b_c2_elabs_scored_6.2plus,syndirella_product,openbind_xx01zvns2b_c2_elabs_scored,openbind_xx01zvns2b_c2_elabs_scored_top80percent,BulkDock Fragalysis export

>  <subsites>  (1026) 
1 - Z4590/B/203/1

>  <smiles>  (1026) 
CN1C(=O)Cc2cc(C(=O)Nc3ccc4c(c3)CN(CC(F)F)C4)cc(Cl)c21

>  <HIPPO Pose ID>  (1026) 
126978

>  <energy_score>  (1026) 
-30.78547

>  <inchikey>  (1026) 
AHFTWIBXVVCFHO-UHFFFAOYSA-N

>  <gnina_score_min>  (1026) 
6.206

>  <gnina_score>  (1026) 
6.33

>  <ref_mols>  (1026) 
Z4756a

>  <HIPPO Compound ID>  (1026) 
184369

>  <distance_score>  (1026) 
0.839678

>  <rmsd(smina/fragmenstein)>  (1026) 
0.828

>  <ref_pdb>  (1026) 
Z4756a

>  <inspiration_score>  (1026) 
None

$$$$
P126981
     RDKit          3D

 28 31  0  0  0  0  0  0  0  0999 V2000
   -6.0627    3.7494  -21.2846 O   0  0  0  0  0  0  0  0  0  0  0  0
   -6.4155    3.9555  -20.1432 C   0  0  0  0  0  0  0  0  0  0  0  0
   -7.6660    3.7976  -19.5884 N   0  0  0  0  0  0  0  0  0  0  0  0
   -7.6554    4.1230  -18.2335 C   0  0  0  0  0  0  0  0  0  0  0  0
   -8.7142    4.1532  -17.3545 C   0  0  0  0  0  0  0  0  0  0  0  0
  -10.4750    4.0668  -17.9555 Br  0  0  0  0  0  0  0  0  0  0  0  0
   -8.4792    4.4553  -16.0156 C   0  0  0  0  0  0  0  0  0  0  0  0
   -7.1829    4.7919  -15.5901 C   0  0  0  0  0  0  0  0  0  0  0  0
   -7.0005    5.2826  -14.2059 C   0  0  0  0  0  0  0  0  0  0  0  0
   -6.4593    6.3069  -14.0561 O   0  0  0  0  0  0  0  0  0  0  0  0
   -7.6540    4.3319  -13.1723 N   0  0  0  0  0  0  0  0  0  0  0  0
   -7.8530    4.4845  -11.8034 C   0  0  0  0  0  0  0  0  0  0  0  0
   -7.5968    5.7238  -11.1948 C   0  0  0  0  0  0  0  0  0  0  0  0
   -7.7706    5.8957   -9.8240 C   0  0  0  0  0  0  0  0  0  0  0  0
   -8.1722    4.8033   -9.0824 C   0  0  0  0  0  0  0  0  0  0  0  0
   -8.4398    3.5680   -9.6755 C   0  0  0  0  0  0  0  0  0  0  0  0
   -8.3082    3.3969  -11.0452 C   0  0  0  0  0  0  0  0  0  0  0  0
   -8.8488    2.5943   -8.6049 C   0  0  0  0  0  0  0  0  0  0  0  0
   -8.4495    3.2693   -7.3519 N   0  0  0  0  0  0  0  0  0  0  0  0
   -9.1769    2.8599   -6.1499 C   0  0  0  0  0  0  0  0  0  0  0  0
   -8.7446    3.6177   -4.8793 C   0  0  0  0  0  0  0  0  0  0  0  0
   -7.4432    3.3641   -4.5682 F   0  0  0  0  0  0  0  0  0  0  0  0
   -9.4963    3.2588   -3.8110 F   0  0  0  0  0  0  0  0  0  0  0  0
   -8.3838    4.7079   -7.6110 C   0  0  0  0  0  0  0  0  0  0  0  0
   -6.1159    4.8448  -16.4943 C   0  0  0  0  0  0  0  0  0  0  0  0
   -6.3867    4.4875  -17.8017 C   0  0  0  0  0  0  0  0  0  0  0  0
   -5.5109    4.4416  -18.9740 C   0  0  0  0  0  0  0  0  0  0  0  0
   -4.3334    4.7170  -19.0151 O   0  0  0  0  0  0  0  0  0  0  0  0
  1  2  2  0
  2  3  1  0
  3  4  1  0
  4  5  2  0
  5  6  1  0
  5  7  1  0
  7  8  2  0
  8  9  1  0
  9 10  2  0
  9 11  1  0
 11 12  1  0
 12 13  2  0
 13 14  1  0
 14 15  2  0
 15 16  1  0
 16 17  2  0
 16 18  1  0
 18 19  1  0
 19 20  1  0
 20 21  1  0
 21 22  1  0
 21 23  1  0
 19 24  1  0
  8 25  1  0
 25 26  2  0
 26 27  1  0
 27 28  2  0
 27  2  1  0
 26  4  1  0
 17 12  1  0
 24 15  1  0
M  END
>  <name>  (1027) 
P126981

>  <alias>  (1027) 
None

>  <smina_score_min>  (1027) 
-9.522

>  <exports>  (1027) 
['/opt/xchem-fragalysis-2/maxwin/BulkDock/OUTPUTS/openbind_xx01zvns2b_c2_elabs_1LOUTNY.sdf', '/opt/xchem-fragalysis-2/maxwin/BulkDock/OUTPUTS/openbind_xx01zvns2b_c2_elabs_1LSYIIV.sdf']

>  <tags>  (1027) 
syndirella_placed,openbind_xx01zvns2b_c2_elabs,openbind_xx01zvns2b_c2_elabs_scored_6.2plus,syndirella_product,openbind_xx01zvns2b_c2_elabs_scored,openbind_xx01zvns2b_c2_elabs_scored_top80percent,BulkDock Fragalysis export

>  <subsites>  (1027) 
1 - Z4590/B/203/1

>  <smiles>  (1027) 
O=C1Nc2c(Br)cc(C(=O)Nc3ccc4c(c3)CN(CC(F)F)C4)cc2C1=O

>  <HIPPO Pose ID>  (1027) 
126981

>  <energy_score>  (1027) 
-26.853127

>  <inchikey>  (1027) 
RTTHYBDMSPDBFU-UHFFFAOYSA-N

>  <gnina_score_min>  (1027) 
6.241

>  <gnina_score>  (1027) 
6.142

>  <ref_mols>  (1027) 
Z4756a

>  <HIPPO Compound ID>  (1027) 
184389

>  <distance_score>  (1027) 
0.526068

>  <rmsd(smina/fragmenstein)>  (1027) 
1.165

>  <ref_pdb>  (1027) 
Z4756a

>  <inspiration_score>  (1027) 
None

$$$$
P126982
     RDKit          3D

 28 31  0  0  0  0  0  0  0  0999 V2000
  -10.1451    4.1433   -3.6794 C   0  0  0  0  0  0  0  0  0  0  0  0
  -10.7789    3.0888   -4.5816 C   0  0  0  0  0  0  0  0  0  0  0  0
  -10.3528    3.2401   -6.0280 C   0  0  0  0  0  0  0  0  0  0  0  0
   -8.9138    2.7833   -6.2481 C   0  0  0  0  0  0  0  0  0  0  0  0
   -8.3323    3.2409   -7.4839 N   0  0  0  0  0  0  0  0  0  0  0  0
   -8.1344    4.6734   -7.6649 C   0  0  0  0  0  0  0  0  0  0  0  0
   -8.0007    4.8221   -9.1430 C   0  0  0  0  0  0  0  0  0  0  0  0
   -7.5694    5.9180   -9.8610 C   0  0  0  0  0  0  0  0  0  0  0  0
   -7.4801    5.7928  -11.2442 C   0  0  0  0  0  0  0  0  0  0  0  0
   -7.8417    4.5950  -11.8806 C   0  0  0  0  0  0  0  0  0  0  0  0
   -7.7378    4.4821  -13.2596 N   0  0  0  0  0  0  0  0  0  0  0  0
   -7.0094    5.3779  -14.2889 C   0  0  0  0  0  0  0  0  0  0  0  0
   -6.4482    6.3918  -14.1466 O   0  0  0  0  0  0  0  0  0  0  0  0
   -7.1734    4.8504  -15.6601 C   0  0  0  0  0  0  0  0  0  0  0  0
   -8.4689    4.5004  -16.0785 C   0  0  0  0  0  0  0  0  0  0  0  0
   -8.7050    4.1647  -17.4063 C   0  0  0  0  0  0  0  0  0  0  0  0
  -10.4711    4.0681  -17.9850 Br  0  0  0  0  0  0  0  0  0  0  0  0
   -7.6467    4.1202  -18.2836 C   0  0  0  0  0  0  0  0  0  0  0  0
   -6.3780    4.4979  -17.8587 C   0  0  0  0  0  0  0  0  0  0  0  0
   -6.1052    4.8832  -16.5604 C   0  0  0  0  0  0  0  0  0  0  0  0
   -5.5045    4.4413  -19.0310 C   0  0  0  0  0  0  0  0  0  0  0  0
   -4.3283    4.7214  -19.0789 O   0  0  0  0  0  0  0  0  0  0  0  0
   -6.4092    3.9397  -20.1917 C   0  0  0  0  0  0  0  0  0  0  0  0
   -6.0585    3.7335  -21.3335 O   0  0  0  0  0  0  0  0  0  0  0  0
   -7.6569    3.7744  -19.6328 N   0  0  0  0  0  0  0  0  0  0  0  0
   -8.3265    3.5074  -11.1474 C   0  0  0  0  0  0  0  0  0  0  0  0
   -8.3827    3.6338   -9.7720 C   0  0  0  0  0  0  0  0  0  0  0  0
   -8.8116    2.6410   -8.7339 C   0  0  0  0  0  0  0  0  0  0  0  0
  1  2  1  0
  2  3  1  0
  3  4  1  0
  4  5  1  0
  5  6  1  0
  6  7  1  0
  7  8  2  0
  8  9  1  0
  9 10  2  0
 10 11  1  0
 11 12  1  0
 12 13  2  0
 12 14  1  0
 14 15  2  0
 15 16  1  0
 16 17  1  0
 16 18  2  0
 18 19  1  0
 19 20  2  0
 19 21  1  0
 21 22  2  0
 21 23  1  0
 23 24  2  0
 23 25  1  0
 10 26  1  0
 26 27  2  0
 27 28  1  0
 28  5  1  0
 27  7  1  0
 20 14  1  0
 25 18  1  0
M  END
>  <name>  (1028) 
P126982

>  <alias>  (1028) 
None

>  <smina_score_min>  (1028) 
-8.993

>  <exports>  (1028) 
['/opt/xchem-fragalysis-2/maxwin/BulkDock/OUTPUTS/openbind_xx01zvns2b_c2_elabs_1LOUTNY.sdf', '/opt/xchem-fragalysis-2/maxwin/BulkDock/OUTPUTS/openbind_xx01zvns2b_c2_elabs_1LSYIIV.sdf']

>  <tags>  (1028) 
syndirella_placed,openbind_xx01zvns2b_c2_elabs,openbind_xx01zvns2b_c2_elabs_scored_6.2plus,syndirella_product,openbind_xx01zvns2b_c2_elabs_scored,openbind_xx01zvns2b_c2_elabs_scored_top80percent,BulkDock Fragalysis export

>  <subsites>  (1028) 
1 - Z4590/B/203/1

>  <smiles>  (1028) 
CCCCN1Cc2ccc(NC(=O)c3cc(Br)c4c(c3)C(=O)C(=O)N4)cc2C1

>  <HIPPO Pose ID>  (1028) 
126982

>  <energy_score>  (1028) 
-39.530612

>  <inchikey>  (1028) 
KQBBRYYSTIKUKV-UHFFFAOYSA-N

>  <gnina_score_min>  (1028) 
6.35

>  <gnina_score>  (1028) 
6.249

>  <ref_mols>  (1028) 
Z4756a

>  <HIPPO Compound ID>  (1028) 
184390

>  <distance_score>  (1028) 
0.554292

>  <rmsd(smina/fragmenstein)>  (1028) 
0.315

>  <ref_pdb>  (1028) 
Z4756a

>  <inspiration_score>  (1028) 
None

$$$$
P126993
     RDKit          3D

 28 32  0  0  0  0  0  0  0  0999 V2000
   -7.0980    6.3874  -14.2304 O   0  0  0  0  0  0  0  0  0  0  0  0
   -7.5263    5.3064  -14.3487 C   0  0  0  0  0  0  0  0  0  0  0  0
   -8.0668    4.3191  -13.2851 N   0  0  0  0  0  0  0  0  0  0  0  0
   -8.1033    4.4167  -11.8943 C   0  0  0  0  0  0  0  0  0  0  0  0
   -7.8249    5.6412  -11.2649 C   0  0  0  0  0  0  0  0  0  0  0  0
   -7.8950    5.7658   -9.8763 C   0  0  0  0  0  0  0  0  0  0  0  0
   -8.2276    4.6468   -9.1370 C   0  0  0  0  0  0  0  0  0  0  0  0
   -8.4895    3.4254   -9.7495 C   0  0  0  0  0  0  0  0  0  0  0  0
   -8.4422    3.2937  -11.1308 C   0  0  0  0  0  0  0  0  0  0  0  0
   -8.8497    2.4148   -8.7034 C   0  0  0  0  0  0  0  0  0  0  0  0
   -8.5790    3.0828   -7.4038 N   0  0  0  0  0  0  0  0  0  0  0  0
   -9.5729    2.7478   -6.3770 C   0  0  0  0  0  0  0  0  0  0  0  0
   -9.3531    3.3945   -5.0028 C   0  0  0  0  0  0  0  0  0  0  0  0
   -9.3581    4.7536   -5.0959 F   0  0  0  0  0  0  0  0  0  0  0  0
  -10.3920    3.0907   -4.1853 F   0  0  0  0  0  0  0  0  0  0  0  0
   -8.4271    4.5257   -7.6637 C   0  0  0  0  0  0  0  0  0  0  0  0
   -7.6225    4.7542  -15.7291 C   0  0  0  0  0  0  0  0  0  0  0  0
   -8.7988    4.1199  -16.1764 C   0  0  0  0  0  0  0  0  0  0  0  0
   -8.9230    3.7030  -17.5029 C   0  0  0  0  0  0  0  0  0  0  0  0
   -7.8516    3.9316  -18.3366 C   0  0  0  0  0  0  0  0  0  0  0  0
   -6.6786    4.5846  -17.9282 C   0  0  0  0  0  0  0  0  0  0  0  0
   -6.5587    4.9997  -16.6126 C   0  0  0  0  0  0  0  0  0  0  0  0
   -5.7795    4.6898  -19.1202 C   0  0  0  0  0  0  0  0  0  0  0  0
   -5.0617    5.9790  -19.4380 C   0  0  0  0  0  0  0  0  0  0  0  0
   -4.2806    4.7553  -19.0430 C   0  0  0  0  0  0  0  0  0  0  0  0
   -6.5188    3.9427  -20.2066 C   0  0  0  0  0  0  0  0  0  0  0  0
   -6.0992    3.7258  -21.3338 O   0  0  0  0  0  0  0  0  0  0  0  0
   -7.7386    3.5594  -19.6759 N   0  0  0  0  0  0  0  0  0  0  0  0
  1  2  2  0
  2  3  1  0
  3  4  1  0
  4  5  2  0
  5  6  1  0
  6  7  2  0
  7  8  1  0
  8  9  2  0
  8 10  1  0
 10 11  1  0
 11 12  1  0
 12 13  1  0
 13 14  1  0
 13 15  1  0
 11 16  1  0
  2 17  1  0
 17 18  2  0
 18 19  1  0
 19 20  2  0
 20 21  1  0
 21 22  2  0
 21 23  1  0
 23 24  1  0
 24 25  1  0
 23 26  1  0
 26 27  2  0
 26 28  1  0
  9  4  1  0
 22 17  1  0
 25 23  1  0
 16  7  1  0
 28 20  1  0
M  END
>  <name>  (1029) 
P126993

>  <alias>  (1029) 
None

>  <smina_score_min>  (1029) 
-10.149

>  <exports>  (1029) 
['/opt/xchem-fragalysis-2/maxwin/BulkDock/OUTPUTS/openbind_xx01zvns2b_c2_elabs_1LOUTNY.sdf', '/opt/xchem-fragalysis-2/maxwin/BulkDock/OUTPUTS/openbind_xx01zvns2b_c2_elabs_1LSYIIV.sdf']

>  <tags>  (1029) 
syndirella_placed,openbind_xx01zvns2b_c2_elabs,openbind_xx01zvns2b_c2_elabs_scored_6.2plus,syndirella_product,openbind_xx01zvns2b_c2_elabs_scored,openbind_xx01zvns2b_c2_elabs_scored_top80percent,BulkDock Fragalysis export

>  <subsites>  (1029) 
1 - Z4590/B/203/1

>  <smiles>  (1029) 
O=C(Nc1ccc2c(c1)CN(CC(F)F)C2)c1ccc2c(c1)C1(CC1)C(=O)N2

>  <HIPPO Pose ID>  (1029) 
126993

>  <energy_score>  (1029) 
-41.041776

>  <inchikey>  (1029) 
VSPGJXOOJXUPRG-UHFFFAOYSA-N

>  <gnina_score_min>  (1029) 
6.249

>  <gnina_score>  (1029) 
6.146

>  <ref_mols>  (1029) 
Z4756a

>  <HIPPO Compound ID>  (1029) 
184377

>  <distance_score>  (1029) 
0.318918

>  <rmsd(smina/fragmenstein)>  (1029) 
0.616

>  <ref_pdb>  (1029) 
Z4756a

>  <inspiration_score>  (1029) 
None

$$$$
P126994
     RDKit          3D

 28 31  0  0  0  0  0  0  0  0999 V2000
   -8.7114    4.2595   -4.0003 C   0  0  0  0  0  0  0  0  0  0  0  0
  -10.0426    4.1622   -4.7264 C   0  0  0  0  0  0  0  0  0  0  0  0
  -10.2907    2.8134   -5.4013 C   0  0  0  0  0  0  0  0  0  0  0  0
   -9.2464    2.3304   -6.4195 C   0  0  0  0  0  0  0  0  0  0  0  0
   -9.2831    3.1017   -7.6528 N   0  0  0  0  0  0  0  0  0  0  0  0
   -8.4278    4.3000   -7.6987 C   0  0  0  0  0  0  0  0  0  0  0  0
   -8.2153    4.5235   -9.1647 C   0  0  0  0  0  0  0  0  0  0  0  0
   -7.8084    5.6567   -9.8408 C   0  0  0  0  0  0  0  0  0  0  0  0
   -7.7206    5.5946  -11.2353 C   0  0  0  0  0  0  0  0  0  0  0  0
   -8.0291    4.4105  -11.9265 C   0  0  0  0  0  0  0  0  0  0  0  0
   -7.9686    4.3554  -13.3174 N   0  0  0  0  0  0  0  0  0  0  0  0
   -7.4219    5.3787  -14.3407 C   0  0  0  0  0  0  0  0  0  0  0  0
   -7.0074    6.4597  -14.1831 O   0  0  0  0  0  0  0  0  0  0  0  0
   -7.4847    4.8524  -15.7360 C   0  0  0  0  0  0  0  0  0  0  0  0
   -8.6186    4.1537  -16.2050 C   0  0  0  0  0  0  0  0  0  0  0  0
   -8.6930    3.7354  -17.5358 C   0  0  0  0  0  0  0  0  0  0  0  0
   -7.6309    4.0469  -18.3583 C   0  0  0  0  0  0  0  0  0  0  0  0
   -6.5221    4.7774  -17.9270 C   0  0  0  0  0  0  0  0  0  0  0  0
   -6.4298    5.1775  -16.6063 C   0  0  0  0  0  0  0  0  0  0  0  0
   -5.6151    5.0555  -19.1072 C   0  0  0  0  0  0  0  0  0  0  0  0
   -4.1482    4.7118  -18.8915 C   0  0  0  0  0  0  0  0  0  0  0  0
   -5.7035    6.5356  -19.4947 C   0  0  0  0  0  0  0  0  0  0  0  0
   -6.2799    4.1705  -20.2053 C   0  0  0  0  0  0  0  0  0  0  0  0
   -5.8626    3.9339  -21.3307 O   0  0  0  0  0  0  0  0  0  0  0  0
   -7.4833    3.6968  -19.6881 N   0  0  0  0  0  0  0  0  0  0  0  0
   -8.4247    3.2678  -11.2262 C   0  0  0  0  0  0  0  0  0  0  0  0
   -8.5180    3.3458   -9.8476 C   0  0  0  0  0  0  0  0  0  0  0  0
   -8.9380    2.3077   -8.8540 C   0  0  0  0  0  0  0  0  0  0  0  0
  1  2  1  0
  2  3  1  0
  3  4  1  0
  4  5  1  0
  5  6  1  0
  6  7  1  0
  7  8  2  0
  8  9  1  0
  9 10  2  0
 10 11  1  0
 11 12  1  0
 12 13  2  0
 12 14  1  0
 14 15  2  0
 15 16  1  0
 16 17  2  0
 17 18  1  0
 18 19  2  0
 18 20  1  0
 20 21  1  0
 20 22  1  0
 20 23  1  0
 23 24  2  0
 23 25  1  0
 10 26  1  0
 26 27  2  0
 27 28  1  0
 28  5  1  0
 27  7  1  0
 19 14  1  0
 25 17  1  0
M  END
>  <name>  (1030) 
P126994

>  <alias>  (1030) 
None

>  <smina_score_min>  (1030) 
-9.626

>  <exports>  (1030) 
['/opt/xchem-fragalysis-2/maxwin/BulkDock/OUTPUTS/openbind_xx01zvns2b_c2_elabs_1LOUTNY.sdf', '/opt/xchem-fragalysis-2/maxwin/BulkDock/OUTPUTS/openbind_xx01zvns2b_c2_elabs_1LSYIIV.sdf']

>  <tags>  (1030) 
syndirella_placed,openbind_xx01zvns2b_c2_elabs,openbind_xx01zvns2b_c2_elabs_scored_6.2plus,syndirella_product,openbind_xx01zvns2b_c2_elabs_scored,openbind_xx01zvns2b_c2_elabs_scored_top80percent,BulkDock Fragalysis export

>  <subsites>  (1030) 
1 - Z4590/B/203/1

>  <smiles>  (1030) 
CCCCN1Cc2ccc(NC(=O)c3ccc4c(c3)C(C)(C)C(=O)N4)cc2C1

>  <HIPPO Pose ID>  (1030) 
126994

>  <energy_score>  (1030) 
-37.893038

>  <inchikey>  (1030) 
VICAGNYTMZIWAF-UHFFFAOYSA-N

>  <gnina_score_min>  (1030) 
6.207

>  <gnina_score>  (1030) 
6.13

>  <ref_mols>  (1030) 
Z4756a

>  <HIPPO Compound ID>  (1030) 
184371

>  <distance_score>  (1030) 
0.418704

>  <rmsd(smina/fragmenstein)>  (1030) 
0.498

>  <ref_pdb>  (1030) 
Z4756a

>  <inspiration_score>  (1030) 
None

$$$$
P127026
     RDKit          3D

 29 32  0  0  0  0  0  0  0  0999 V2000
   -5.7291    6.5256  -19.4788 C   0  0  0  0  0  0  0  0  0  0  0  0
   -5.6351    5.0446  -19.0967 C   0  0  0  0  0  0  0  0  0  0  0  0
   -4.1660    4.7071  -18.8864 C   0  0  0  0  0  0  0  0  0  0  0  0
   -6.3005    4.1608  -20.1951 C   0  0  0  0  0  0  0  0  0  0  0  0
   -5.8839    3.9258  -21.3212 O   0  0  0  0  0  0  0  0  0  0  0  0
   -7.5036    3.6859  -19.6771 N   0  0  0  0  0  0  0  0  0  0  0  0
   -7.6475    4.0296  -18.3448 C   0  0  0  0  0  0  0  0  0  0  0  0
   -8.7054    3.7120  -17.5176 C   0  0  0  0  0  0  0  0  0  0  0  0
   -8.6281    4.1243  -16.1842 C   0  0  0  0  0  0  0  0  0  0  0  0
   -7.4969    4.8272  -15.7211 C   0  0  0  0  0  0  0  0  0  0  0  0
   -7.4365    5.3726  -14.3362 C   0  0  0  0  0  0  0  0  0  0  0  0
   -7.0383    6.4643  -14.2088 O   0  0  0  0  0  0  0  0  0  0  0  0
   -7.8947    4.3411  -13.2756 N   0  0  0  0  0  0  0  0  0  0  0  0
   -8.0426    4.4669  -11.8948 C   0  0  0  0  0  0  0  0  0  0  0  0
   -7.8185    5.7107  -11.2796 C   0  0  0  0  0  0  0  0  0  0  0  0
   -7.9263    5.8594   -9.8979 C   0  0  0  0  0  0  0  0  0  0  0  0
   -8.2459    4.7444   -9.1502 C   0  0  0  0  0  0  0  0  0  0  0  0
   -8.4830    3.5062   -9.7475 C   0  0  0  0  0  0  0  0  0  0  0  0
   -8.3946    3.3511  -11.1247 C   0  0  0  0  0  0  0  0  0  0  0  0
   -8.8400    2.5118   -8.6799 C   0  0  0  0  0  0  0  0  0  0  0  0
   -8.4809    3.1917   -7.4161 N   0  0  0  0  0  0  0  0  0  0  0  0
   -9.2786    2.7950   -6.2461 C   0  0  0  0  0  0  0  0  0  0  0  0
   -8.9340    3.5176   -4.9248 C   0  0  0  0  0  0  0  0  0  0  0  0
   -7.6391    3.3410   -4.5609 F   0  0  0  0  0  0  0  0  0  0  0  0
   -9.7207    3.1105   -3.9051 F   0  0  0  0  0  0  0  0  0  0  0  0
   -9.1300    4.8594   -5.0303 F   0  0  0  0  0  0  0  0  0  0  0  0
   -8.4208    4.6347   -7.6740 C   0  0  0  0  0  0  0  0  0  0  0  0
   -6.4448    5.1567  -16.5947 C   0  0  0  0  0  0  0  0  0  0  0  0
   -6.5385    4.7600  -17.9155 C   0  0  0  0  0  0  0  0  0  0  0  0
  1  2  1  0
  2  3  1  0
  2  4  1  0
  4  5  2  0
  4  6  1  0
  6  7  1  0
  7  8  2  0
  8  9  1  0
  9 10  2  0
 10 11  1  0
 11 12  2  0
 11 13  1  0
 13 14  1  0
 14 15  2  0
 15 16  1  0
 16 17  2  0
 17 18  1  0
 18 19  2  0
 18 20  1  0
 20 21  1  0
 21 22  1  0
 22 23  1  0
 23 24  1  0
 23 25  1  0
 23 26  1  0
 21 27  1  0
 10 28  1  0
 28 29  2  0
 29  2  1  0
 29  7  1  0
 19 14  1  0
 27 17  1  0
M  END
>  <name>  (1031) 
P127026

>  <alias>  (1031) 
None

>  <smina_score_min>  (1031) 
-10.089

>  <exports>  (1031) 
['/opt/xchem-fragalysis-2/maxwin/BulkDock/OUTPUTS/openbind_xx01zvns2b_c2_elabs_1LOUTNY.sdf', '/opt/xchem-fragalysis-2/maxwin/BulkDock/OUTPUTS/openbind_xx01zvns2b_c2_elabs_1LSYIIV.sdf']

>  <tags>  (1031) 
syndirella_placed,openbind_xx01zvns2b_c2_elabs,openbind_xx01zvns2b_c2_elabs_scored_6.2plus,syndirella_product,openbind_xx01zvns2b_c2_elabs_scored,openbind_xx01zvns2b_c2_elabs_scored_top80percent,BulkDock Fragalysis export

>  <subsites>  (1031) 
1 - Z4590/B/203/1

>  <smiles>  (1031) 
CC1(C)C(=O)Nc2ccc(C(=O)Nc3ccc4c(c3)CN(CC(F)(F)F)C4)cc21

>  <HIPPO Pose ID>  (1031) 
127026

>  <energy_score>  (1031) 
-24.694583

>  <inchikey>  (1031) 
QYWBIBUIFSTOLH-UHFFFAOYSA-N

>  <gnina_score_min>  (1031) 
6.221

>  <gnina_score>  (1031) 
6.048

>  <ref_mols>  (1031) 
Z4756a

>  <HIPPO Compound ID>  (1031) 
184440

>  <distance_score>  (1031) 
0.402565

>  <rmsd(smina/fragmenstein)>  (1031) 
0.582

>  <ref_pdb>  (1031) 
Z4756a

>  <inspiration_score>  (1031) 
None

$$$$
P127034
     RDKit          3D

 29 33  0  0  0  0  0  0  0  0999 V2000
   -7.0429    4.8408   -4.8617 C   0  0  0  0  0  0  0  0  0  0  0  0
   -7.9112    3.7050   -4.3527 C   0  0  0  0  0  0  0  0  0  0  0  0
   -9.2959    3.5906   -4.9965 C   0  0  0  0  0  0  0  0  0  0  0  0
   -9.3719    2.7428   -6.2741 C   0  0  0  0  0  0  0  0  0  0  0  0
   -8.8130    3.2931   -7.4970 N   0  0  0  0  0  0  0  0  0  0  0  0
   -8.7904    2.4649   -8.7069 C   0  0  0  0  0  0  0  0  0  0  0  0
   -8.4610    3.4478   -9.7823 C   0  0  0  0  0  0  0  0  0  0  0  0
   -8.2963    3.2739  -11.1483 C   0  0  0  0  0  0  0  0  0  0  0  0
   -7.9979    4.4012  -11.9290 C   0  0  0  0  0  0  0  0  0  0  0  0
   -7.8476    4.2629  -13.3071 N   0  0  0  0  0  0  0  0  0  0  0  0
   -7.4849    5.3082  -14.3879 C   0  0  0  0  0  0  0  0  0  0  0  0
   -7.1803    6.4309  -14.2833 O   0  0  0  0  0  0  0  0  0  0  0  0
   -7.5833    4.7504  -15.7597 C   0  0  0  0  0  0  0  0  0  0  0  0
   -8.7631    4.1133  -16.1932 C   0  0  0  0  0  0  0  0  0  0  0  0
   -8.8951    3.6954  -17.5181 C   0  0  0  0  0  0  0  0  0  0  0  0
   -7.8288    3.9270  -18.3586 C   0  0  0  0  0  0  0  0  0  0  0  0
   -6.6542    4.5838  -17.9590 C   0  0  0  0  0  0  0  0  0  0  0  0
   -6.5259    5.0014  -16.6465 C   0  0  0  0  0  0  0  0  0  0  0  0
   -5.7623    4.6899  -19.1552 C   0  0  0  0  0  0  0  0  0  0  0  0
   -4.2630    4.7573  -19.0863 C   0  0  0  0  0  0  0  0  0  0  0  0
   -5.0479    5.9795  -19.4784 C   0  0  0  0  0  0  0  0  0  0  0  0
   -6.5060    3.9401  -20.2355 C   0  0  0  0  0  0  0  0  0  0  0  0
   -6.0915    3.7242  -21.3645 O   0  0  0  0  0  0  0  0  0  0  0  0
   -7.7219    3.5534  -19.6980 N   0  0  0  0  0  0  0  0  0  0  0  0
   -7.8673    5.6714  -11.3355 C   0  0  0  0  0  0  0  0  0  0  0  0
   -8.0698    5.8444   -9.9691 C   0  0  0  0  0  0  0  0  0  0  0  0
   -8.3666    4.7192   -9.2294 C   0  0  0  0  0  0  0  0  0  0  0  0
   -8.6931    4.6360   -7.8080 C   0  0  0  0  0  0  0  0  0  0  0  0
   -8.8559    5.6240   -7.1165 O   0  0  0  0  0  0  0  0  0  0  0  0
  1  2  1  0
  2  3  1  0
  3  4  1  0
  4  5  1  0
  5  6  1  0
  6  7  1  0
  7  8  2  0
  8  9  1  0
  9 10  1  0
 10 11  1  0
 11 12  2  0
 11 13  1  0
 13 14  2  0
 14 15  1  0
 15 16  2  0
 16 17  1  0
 17 18  2  0
 17 19  1  0
 19 20  1  0
 20 21  1  0
 19 22  1  0
 22 23  2  0
 22 24  1  0
  9 25  2  0
 25 26  1  0
 26 27  2  0
 27 28  1  0
 28 29  2  0
 28  5  1  0
 27  7  1  0
 18 13  1  0
 21 19  1  0
 24 16  1  0
M  END
>  <name>  (1032) 
P127034

>  <alias>  (1032) 
None

>  <smina_score_min>  (1032) 
-10.079

>  <exports>  (1032) 
['/opt/xchem-fragalysis-2/maxwin/BulkDock/OUTPUTS/openbind_xx01zvns2b_c2_elabs_1LOUTNY.sdf', '/opt/xchem-fragalysis-2/maxwin/BulkDock/OUTPUTS/openbind_xx01zvns2b_c2_elabs_1LSYIIV.sdf']

>  <tags>  (1032) 
syndirella_placed,openbind_xx01zvns2b_c2_elabs,openbind_xx01zvns2b_c2_elabs_scored_6.2plus,syndirella_product,openbind_xx01zvns2b_c2_elabs_scored,openbind_xx01zvns2b_c2_elabs_scored_top80percent,BulkDock Fragalysis export

>  <subsites>  (1032) 
1 - Z4590/B/203/1

>  <smiles>  (1032) 
CCCCN1Cc2cc(NC(=O)c3ccc4c(c3)C3(CC3)C(=O)N4)ccc2C1=O

>  <HIPPO Pose ID>  (1032) 
127034

>  <energy_score>  (1032) 
-28.205133

>  <inchikey>  (1032) 
FZTZJDJWUQEGJU-UHFFFAOYSA-N

>  <gnina_score_min>  (1032) 
6.258

>  <gnina_score>  (1032) 
6.149

>  <ref_mols>  (1032) 
Z4756a

>  <HIPPO Compound ID>  (1032) 
184472

>  <distance_score>  (1032) 
0.368643

>  <rmsd(smina/fragmenstein)>  (1032) 
0.882

>  <ref_pdb>  (1032) 
Z4756a

>  <inspiration_score>  (1032) 
None

$$$$
P127039
     RDKit          3D

 29 32  0  0  0  0  0  0  0  0999 V2000
   -9.9247    4.4601   -2.9412 C   0  0  0  0  0  0  0  0  0  0  0  0
   -9.3395    4.2489   -4.3269 C   0  0  0  0  0  0  0  0  0  0  0  0
   -9.9934    3.0881   -5.0836 C   0  0  0  0  0  0  0  0  0  0  0  0
   -9.0629    2.4007   -6.0918 C   0  0  0  0  0  0  0  0  0  0  0  0
   -8.8833    3.1291   -7.3299 N   0  0  0  0  0  0  0  0  0  0  0  0
   -8.9690    2.4370   -8.6129 C   0  0  0  0  0  0  0  0  0  0  0  0
   -8.4893    3.4720   -9.5729 C   0  0  0  0  0  0  0  0  0  0  0  0
   -8.4171    3.4539  -10.9531 C   0  0  0  0  0  0  0  0  0  0  0  0
   -7.8965    4.5871  -11.5922 C   0  0  0  0  0  0  0  0  0  0  0  0
   -7.7608    4.5775  -12.9715 N   0  0  0  0  0  0  0  0  0  0  0  0
   -7.0827    5.5914  -13.9203 C   0  0  0  0  0  0  0  0  0  0  0  0
   -6.5999    6.6305  -13.6973 O   0  0  0  0  0  0  0  0  0  0  0  0
   -7.1124    5.1172  -15.3188 C   0  0  0  0  0  0  0  0  0  0  0  0
   -8.2999    4.5895  -15.8504 C   0  0  0  0  0  0  0  0  0  0  0  0
   -8.3562    4.2354  -17.1925 C   0  0  0  0  0  0  0  0  0  0  0  0
   -9.8862    3.7957  -17.8195 Cl  0  0  0  0  0  0  0  0  0  0  0  0
   -7.2110    4.3933  -17.9647 C   0  0  0  0  0  0  0  0  0  0  0  0
   -6.0498    4.9604  -17.4432 C   0  0  0  0  0  0  0  0  0  0  0  0
   -5.9803    5.3270  -16.1163 C   0  0  0  0  0  0  0  0  0  0  0  0
   -5.0075    5.0864  -18.5165 C   0  0  0  0  0  0  0  0  0  0  0  0
   -5.6965    4.4583  -19.7222 C   0  0  0  0  0  0  0  0  0  0  0  0
   -5.2169    4.3036  -20.8365 O   0  0  0  0  0  0  0  0  0  0  0  0
   -6.9576    4.0711  -19.2939 N   0  0  0  0  0  0  0  0  0  0  0  0
   -7.8308    3.3150  -20.1017 C   0  0  0  0  0  0  0  0  0  0  0  0
   -7.4912    5.7176  -10.8609 C   0  0  0  0  0  0  0  0  0  0  0  0
   -7.5517    5.7205   -9.4733 C   0  0  0  0  0  0  0  0  0  0  0  0
   -8.0383    4.5834   -8.8672 C   0  0  0  0  0  0  0  0  0  0  0  0
   -8.1638    4.3067   -7.4398 C   0  0  0  0  0  0  0  0  0  0  0  0
   -7.6728    5.0100   -6.5768 O   0  0  0  0  0  0  0  0  0  0  0  0
  1  2  1  0
  2  3  1  0
  3  4  1  0
  4  5  1  0
  5  6  1  0
  6  7  1  0
  7  8  2  0
  8  9  1  0
  9 10  1  0
 10 11  1  0
 11 12  2  0
 11 13  1  0
 13 14  2  0
 14 15  1  0
 15 16  1  0
 15 17  2  0
 17 18  1  0
 18 19  2  0
 18 20  1  0
 20 21  1  0
 21 22  2  0
 21 23  1  0
 23 24  1  0
  9 25  2  0
 25 26  1  0
 26 27  2  0
 27 28  1  0
 28 29  2  0
 28  5  1  0
 27  7  1  0
 19 13  1  0
 23 17  1  0
M  END
>  <name>  (1033) 
P127039

>  <alias>  (1033) 
None

>  <smina_score_min>  (1033) 
-8.619

>  <exports>  (1033) 
['/opt/xchem-fragalysis-2/maxwin/BulkDock/OUTPUTS/openbind_xx01zvns2b_c2_elabs_1LOUTNY.sdf', '/opt/xchem-fragalysis-2/maxwin/BulkDock/OUTPUTS/openbind_xx01zvns2b_c2_elabs_1LSYIIV.sdf']

>  <tags>  (1033) 
syndirella_placed,openbind_xx01zvns2b_c2_elabs,openbind_xx01zvns2b_c2_elabs_scored_6.2plus,syndirella_product,openbind_xx01zvns2b_c2_elabs_scored,openbind_xx01zvns2b_c2_elabs_scored_top80percent,BulkDock Fragalysis export

>  <subsites>  (1033) 
1 - Z4590/B/203/1

>  <smiles>  (1033) 
CCCCN1Cc2cc(NC(=O)c3cc(Cl)c4c(c3)CC(=O)N4C)ccc2C1=O

>  <HIPPO Pose ID>  (1033) 
127039

>  <energy_score>  (1033) 
-25.949655

>  <inchikey>  (1033) 
LZOZYOUKQYEHBJ-UHFFFAOYSA-N

>  <gnina_score_min>  (1033) 
6.308

>  <gnina_score>  (1033) 
6.284

>  <ref_mols>  (1033) 
Z4756a

>  <HIPPO Compound ID>  (1033) 
184487

>  <distance_score>  (1033) 
0.815118

>  <rmsd(smina/fragmenstein)>  (1033) 
0.757

>  <ref_pdb>  (1033) 
Z4756a

>  <inspiration_score>  (1033) 
None

$$$$
P127046
     RDKit          3D

 29 32  0  0  0  0  0  0  0  0999 V2000
   -9.7115    3.9664   -3.2442 C   0  0  0  0  0  0  0  0  0  0  0  0
  -10.5220    3.9913   -4.5353 C   0  0  0  0  0  0  0  0  0  0  0  0
  -11.4142    2.7750   -4.7568 C   0  0  0  0  0  0  0  0  0  0  0  0
   -9.6445    4.2580   -5.7459 C   0  0  0  0  0  0  0  0  0  0  0  0
   -8.8275    3.0748   -6.2681 C   0  0  0  0  0  0  0  0  0  0  0  0
   -8.1922    3.3679   -7.5347 N   0  0  0  0  0  0  0  0  0  0  0  0
   -7.7627    4.7287   -7.8270 C   0  0  0  0  0  0  0  0  0  0  0  0
   -7.8183    4.8271   -9.3083 C   0  0  0  0  0  0  0  0  0  0  0  0
   -7.4400    5.8980  -10.0855 C   0  0  0  0  0  0  0  0  0  0  0  0
   -7.5553    5.7613  -11.4594 C   0  0  0  0  0  0  0  0  0  0  0  0
   -8.0285    4.5677  -12.0332 C   0  0  0  0  0  0  0  0  0  0  0  0
   -8.0195    4.4532  -13.4178 N   0  0  0  0  0  0  0  0  0  0  0  0
   -7.4570    5.4028  -14.5000 C   0  0  0  0  0  0  0  0  0  0  0  0
   -6.9820    6.4659  -14.4020 O   0  0  0  0  0  0  0  0  0  0  0  0
   -7.5194    4.8246  -15.8649 C   0  0  0  0  0  0  0  0  0  0  0  0
   -8.6447    4.1152  -16.3299 C   0  0  0  0  0  0  0  0  0  0  0  0
   -8.6999    3.6849  -17.6574 C   0  0  0  0  0  0  0  0  0  0  0  0
   -7.6305    3.9985  -18.4723 C   0  0  0  0  0  0  0  0  0  0  0  0
   -6.5286    4.7341  -18.0373 C   0  0  0  0  0  0  0  0  0  0  0  0
   -6.4514    5.1391  -16.7236 C   0  0  0  0  0  0  0  0  0  0  0  0
   -5.6115    5.0210  -19.2033 C   0  0  0  0  0  0  0  0  0  0  0  0
   -5.6936    6.5053  -19.5791 C   0  0  0  0  0  0  0  0  0  0  0  0
   -4.1452    4.6806  -18.9740 C   0  0  0  0  0  0  0  0  0  0  0  0
   -6.2656    4.1389  -20.3071 C   0  0  0  0  0  0  0  0  0  0  0  0
   -5.8420    3.9172  -21.4328 O   0  0  0  0  0  0  0  0  0  0  0  0
   -7.4674    3.6487  -19.7996 N   0  0  0  0  0  0  0  0  0  0  0  0
   -8.4565    3.5068  -11.2293 C   0  0  0  0  0  0  0  0  0  0  0  0
   -8.3531    3.6604   -9.8558 C   0  0  0  0  0  0  0  0  0  0  0  0
   -8.7642    2.7447   -8.7413 C   0  0  0  0  0  0  0  0  0  0  0  0
  1  2  1  0
  2  3  1  0
  2  4  1  0
  4  5  1  0
  5  6  1  0
  6  7  1  0
  7  8  1  0
  8  9  2  0
  9 10  1  0
 10 11  2  0
 11 12  1  0
 12 13  1  0
 13 14  2  0
 13 15  1  0
 15 16  2  0
 16 17  1  0
 17 18  2  0
 18 19  1  0
 19 20  2  0
 19 21  1  0
 21 22  1  0
 21 23  1  0
 21 24  1  0
 24 25  2  0
 24 26  1  0
 11 27  1  0
 27 28  2  0
 28 29  1  0
 29  6  1  0
 28  8  1  0
 20 15  1  0
 26 18  1  0
M  END
>  <name>  (1034) 
P127046

>  <alias>  (1034) 
None

>  <smina_score_min>  (1034) 
-9.941

>  <exports>  (1034) 
['/opt/xchem-fragalysis-2/maxwin/BulkDock/OUTPUTS/openbind_xx01zvns2b_c2_elabs_1LOUTNY.sdf', '/opt/xchem-fragalysis-2/maxwin/BulkDock/OUTPUTS/openbind_xx01zvns2b_c2_elabs_1LSYIIV.sdf']

>  <tags>  (1034) 
syndirella_placed,openbind_xx01zvns2b_c2_elabs,openbind_xx01zvns2b_c2_elabs_scored_6.2plus,syndirella_product,openbind_xx01zvns2b_c2_elabs_scored,openbind_xx01zvns2b_c2_elabs_scored_top80percent,BulkDock Fragalysis export

>  <subsites>  (1034) 
1 - Z4590/B/203/1

>  <smiles>  (1034) 
CC(C)CCN1Cc2ccc(NC(=O)c3ccc4c(c3)C(C)(C)C(=O)N4)cc2C1

>  <HIPPO Pose ID>  (1034) 
127046

>  <energy_score>  (1034) 
-13.363266

>  <inchikey>  (1034) 
ZNFODMKORCWYLD-UHFFFAOYSA-N

>  <gnina_score_min>  (1034) 
6.26

>  <gnina_score>  (1034) 
6.183

>  <ref_mols>  (1034) 
Z4756a

>  <HIPPO Compound ID>  (1034) 
184435

>  <distance_score>  (1034) 
0.540816

>  <rmsd(smina/fragmenstein)>  (1034) 
0.451

>  <ref_pdb>  (1034) 
Z4756a

>  <inspiration_score>  (1034) 
None

$$$$
P127065
     RDKit          3D

 29 32  0  0  0  0  0  0  0  0999 V2000
   -7.8463    3.3219  -20.0889 C   0  0  0  0  0  0  0  0  0  0  0  0
   -6.9673    4.0735  -19.2828 N   0  0  0  0  0  0  0  0  0  0  0  0
   -5.7072    4.4586  -19.7169 C   0  0  0  0  0  0  0  0  0  0  0  0
   -5.2330    4.3054  -20.8338 O   0  0  0  0  0  0  0  0  0  0  0  0
   -5.0104    5.0820  -18.5135 C   0  0  0  0  0  0  0  0  0  0  0  0
   -6.0441    4.9489  -17.4330 C   0  0  0  0  0  0  0  0  0  0  0  0
   -5.9654    5.3097  -16.1053 C   0  0  0  0  0  0  0  0  0  0  0  0
   -7.0902    5.0894  -15.3009 C   0  0  0  0  0  0  0  0  0  0  0  0
   -7.0661    5.5814  -13.9116 C   0  0  0  0  0  0  0  0  0  0  0  0
   -6.6574    6.6574  -13.7153 O   0  0  0  0  0  0  0  0  0  0  0  0
   -7.6292    4.5290  -12.9300 N   0  0  0  0  0  0  0  0  0  0  0  0
   -7.8852    4.6124  -11.5692 C   0  0  0  0  0  0  0  0  0  0  0  0
   -7.7112    5.8421  -10.9137 C   0  0  0  0  0  0  0  0  0  0  0  0
   -7.9076    5.9507   -9.5442 C   0  0  0  0  0  0  0  0  0  0  0  0
   -8.2605    4.8089   -8.8575 C   0  0  0  0  0  0  0  0  0  0  0  0
   -8.4633    3.5854   -9.4996 C   0  0  0  0  0  0  0  0  0  0  0  0
   -8.2938    3.4710  -10.8687 C   0  0  0  0  0  0  0  0  0  0  0  0
   -8.8663    2.5620   -8.4762 C   0  0  0  0  0  0  0  0  0  0  0  0
   -8.5230    3.2039   -7.1883 N   0  0  0  0  0  0  0  0  0  0  0  0
   -9.3258    2.7711   -6.0349 C   0  0  0  0  0  0  0  0  0  0  0  0
   -9.0011    3.4971   -4.7077 C   0  0  0  0  0  0  0  0  0  0  0  0
   -7.6959    3.3756   -4.3574 F   0  0  0  0  0  0  0  0  0  0  0  0
   -9.7588    3.0622   -3.6818 F   0  0  0  0  0  0  0  0  0  0  0  0
   -9.2515    4.8320   -4.8056 F   0  0  0  0  0  0  0  0  0  0  0  0
   -8.4976    4.6550   -7.3978 C   0  0  0  0  0  0  0  0  0  0  0  0
   -8.2803    4.5584  -15.8217 C   0  0  0  0  0  0  0  0  0  0  0  0
   -8.3487    4.2203  -17.1677 C   0  0  0  0  0  0  0  0  0  0  0  0
   -9.8845    3.7947  -17.7912 Cl  0  0  0  0  0  0  0  0  0  0  0  0
   -7.2098    4.3854  -17.9488 C   0  0  0  0  0  0  0  0  0  0  0  0
  1  2  1  0
  2  3  1  0
  3  4  2  0
  3  5  1  0
  5  6  1  0
  6  7  2  0
  7  8  1  0
  8  9  1  0
  9 10  2  0
  9 11  1  0
 11 12  1  0
 12 13  2  0
 13 14  1  0
 14 15  2  0
 15 16  1  0
 16 17  2  0
 16 18  1  0
 18 19  1  0
 19 20  1  0
 20 21  1  0
 21 22  1  0
 21 23  1  0
 21 24  1  0
 19 25  1  0
  8 26  2  0
 26 27  1  0
 27 28  1  0
 27 29  2  0
 29  2  1  0
 29  6  1  0
 17 12  1  0
 25 15  1  0
M  END
>  <name>  (1035) 
P127065

>  <alias>  (1035) 
None

>  <smina_score_min>  (1035) 
-9.639

>  <exports>  (1035) 
['/opt/xchem-fragalysis-2/maxwin/BulkDock/OUTPUTS/openbind_xx01zvns2b_c2_elabs_1LOUTNY.sdf', '/opt/xchem-fragalysis-2/maxwin/BulkDock/OUTPUTS/openbind_xx01zvns2b_c2_elabs_1LSYIIV.sdf']

>  <tags>  (1035) 
syndirella_placed,openbind_xx01zvns2b_c2_elabs,openbind_xx01zvns2b_c2_elabs_scored_6.2plus,syndirella_product,openbind_xx01zvns2b_c2_elabs_scored,openbind_xx01zvns2b_c2_elabs_scored_top80percent,BulkDock Fragalysis export

>  <subsites>  (1035) 
1 - Z4590/B/203/1

>  <smiles>  (1035) 
CN1C(=O)Cc2cc(C(=O)Nc3ccc4c(c3)CN(CC(F)(F)F)C4)cc(Cl)c21

>  <HIPPO Pose ID>  (1035) 
127065

>  <energy_score>  (1035) 
-26.445536

>  <inchikey>  (1035) 
BJCCITKMGRXQSM-UHFFFAOYSA-N

>  <gnina_score_min>  (1035) 
6.294

>  <gnina_score>  (1035) 
6.207

>  <ref_mols>  (1035) 
Z4756a

>  <HIPPO Compound ID>  (1035) 
184459

>  <distance_score>  (1035) 
0.825782

>  <rmsd(smina/fragmenstein)>  (1035) 
1.144

>  <ref_pdb>  (1035) 
Z4756a

>  <inspiration_score>  (1035) 
None

$$$$
P127071
     RDKit          3D

 29 32  0  0  0  0  0  0  0  0999 V2000
   -9.6220    5.4601   -4.1193 C   0  0  0  0  0  0  0  0  0  0  0  0
   -8.4136    4.5912   -4.4262 C   0  0  0  0  0  0  0  0  0  0  0  0
   -8.7780    3.2183   -4.9869 C   0  0  0  0  0  0  0  0  0  0  0  0
   -9.5736    3.1101   -6.2866 C   0  0  0  0  0  0  0  0  0  0  0  0
   -8.8523    3.4985   -7.4827 N   0  0  0  0  0  0  0  0  0  0  0  0
   -8.8737    2.6556   -8.6818 C   0  0  0  0  0  0  0  0  0  0  0  0
   -8.3876    3.5848   -9.7482 C   0  0  0  0  0  0  0  0  0  0  0  0
   -8.1733    3.3857  -11.1027 C   0  0  0  0  0  0  0  0  0  0  0  0
   -7.7196    4.4751  -11.8657 C   0  0  0  0  0  0  0  0  0  0  0  0
   -7.5206    4.3215  -13.2322 N   0  0  0  0  0  0  0  0  0  0  0  0
   -6.8984    5.2843  -14.2715 C   0  0  0  0  0  0  0  0  0  0  0  0
   -6.3864    6.3240  -14.1287 O   0  0  0  0  0  0  0  0  0  0  0  0
   -7.1025    4.7936  -15.6493 C   0  0  0  0  0  0  0  0  0  0  0  0
   -8.4080    4.4565  -16.0502 C   0  0  0  0  0  0  0  0  0  0  0  0
   -8.6663    4.1507  -17.3834 C   0  0  0  0  0  0  0  0  0  0  0  0
  -10.4376    4.0527  -17.9517 Br  0  0  0  0  0  0  0  0  0  0  0  0
   -7.6209    4.1199  -18.2780 C   0  0  0  0  0  0  0  0  0  0  0  0
   -6.3458    4.4891  -17.8674 C   0  0  0  0  0  0  0  0  0  0  0  0
   -6.0512    4.8490  -16.5677 C   0  0  0  0  0  0  0  0  0  0  0  0
   -5.4870    4.4406  -19.0500 C   0  0  0  0  0  0  0  0  0  0  0  0
   -4.3099    4.7147  -19.1070 O   0  0  0  0  0  0  0  0  0  0  0  0
   -6.4061    3.9482  -20.2022 C   0  0  0  0  0  0  0  0  0  0  0  0
   -6.0664    3.7410  -21.3470 O   0  0  0  0  0  0  0  0  0  0  0  0
   -7.6487    3.7868  -19.6304 N   0  0  0  0  0  0  0  0  0  0  0  0
   -7.5087    5.7354  -11.2775 C   0  0  0  0  0  0  0  0  0  0  0  0
   -7.7590    5.9369   -9.9268 C   0  0  0  0  0  0  0  0  0  0  0  0
   -8.1878    4.8473   -9.2006 C   0  0  0  0  0  0  0  0  0  0  0  0
   -8.5673    4.8153   -7.7957 C   0  0  0  0  0  0  0  0  0  0  0  0
   -8.6573    5.8226   -7.1202 O   0  0  0  0  0  0  0  0  0  0  0  0
  1  2  1  0
  2  3  1  0
  3  4  1  0
  4  5  1  0
  5  6  1  0
  6  7  1  0
  7  8  2  0
  8  9  1  0
  9 10  1  0
 10 11  1  0
 11 12  2  0
 11 13  1  0
 13 14  2  0
 14 15  1  0
 15 16  1  0
 15 17  2  0
 17 18  1  0
 18 19  2  0
 18 20  1  0
 20 21  2  0
 20 22  1  0
 22 23  2  0
 22 24  1  0
  9 25  2  0
 25 26  1  0
 26 27  2  0
 27 28  1  0
 28 29  2  0
 28  5  1  0
 27  7  1  0
 19 13  1  0
 24 17  1  0
M  END
>  <name>  (1036) 
P127071

>  <alias>  (1036) 
None

>  <smina_score_min>  (1036) 
-9.108

>  <exports>  (1036) 
['/opt/xchem-fragalysis-2/maxwin/BulkDock/OUTPUTS/openbind_xx01zvns2b_c2_elabs_1LOUTNY.sdf', '/opt/xchem-fragalysis-2/maxwin/BulkDock/OUTPUTS/openbind_xx01zvns2b_c2_elabs_1LSYIIV.sdf']

>  <tags>  (1036) 
syndirella_placed,openbind_xx01zvns2b_c2_elabs,openbind_xx01zvns2b_c2_elabs_scored_6.2plus,syndirella_product,openbind_xx01zvns2b_c2_elabs_scored,openbind_xx01zvns2b_c2_elabs_scored_top80percent,BulkDock Fragalysis export

>  <subsites>  (1036) 
1 - Z4590/B/203/1

>  <smiles>  (1036) 
CCCCN1Cc2cc(NC(=O)c3cc(Br)c4c(c3)C(=O)C(=O)N4)ccc2C1=O

>  <HIPPO Pose ID>  (1036) 
127071

>  <energy_score>  (1036) 
-21.586231

>  <inchikey>  (1036) 
VLZRRMAZNXJYAV-UHFFFAOYSA-N

>  <gnina_score_min>  (1036) 
6.35

>  <gnina_score>  (1036) 
6.268

>  <ref_mols>  (1036) 
Z4756a

>  <HIPPO Compound ID>  (1036) 
184468

>  <distance_score>  (1036) 
0.615263

>  <rmsd(smina/fragmenstein)>  (1036) 
0.617

>  <ref_pdb>  (1036) 
Z4756a

>  <inspiration_score>  (1036) 
None

$$$$
P127079
     RDKit          3D

 29 32  0  0  0  0  0  0  0  0999 V2000
   -9.9805    4.8313   -4.6358 C   0  0  0  0  0  0  0  0  0  0  0  0
  -10.5115    3.5316   -4.4459 O   0  0  0  0  0  0  0  0  0  0  0  0
  -10.4356    2.6908   -5.6038 C   0  0  0  0  0  0  0  0  0  0  0  0
   -9.0167    2.4325   -6.1359 C   0  0  0  0  0  0  0  0  0  0  0  0
   -8.7565    3.0836   -7.4155 N   0  0  0  0  0  0  0  0  0  0  0  0
   -8.9713    2.3891   -8.6801 C   0  0  0  0  0  0  0  0  0  0  0  0
   -8.4859    3.3840   -9.6839 C   0  0  0  0  0  0  0  0  0  0  0  0
   -8.4148    3.3019  -11.0665 C   0  0  0  0  0  0  0  0  0  0  0  0
   -7.8520    4.3790  -11.7686 C   0  0  0  0  0  0  0  0  0  0  0  0
   -7.7026    4.2799  -13.1494 N   0  0  0  0  0  0  0  0  0  0  0  0
   -6.9909    5.2205  -14.1549 C   0  0  0  0  0  0  0  0  0  0  0  0
   -6.3546    6.1830  -13.9713 O   0  0  0  0  0  0  0  0  0  0  0  0
   -7.1980    4.7827  -15.5581 C   0  0  0  0  0  0  0  0  0  0  0  0
   -8.4949    4.4630  -15.9946 C   0  0  0  0  0  0  0  0  0  0  0  0
   -8.7254    4.1673  -17.3373 C   0  0  0  0  0  0  0  0  0  0  0  0
  -10.4823    4.0760  -17.9499 Br  0  0  0  0  0  0  0  0  0  0  0  0
   -7.6638    4.1355  -18.2128 C   0  0  0  0  0  0  0  0  0  0  0  0
   -6.3955    4.4904  -17.7745 C   0  0  0  0  0  0  0  0  0  0  0  0
   -6.1283    4.8341  -16.4621 C   0  0  0  0  0  0  0  0  0  0  0  0
   -5.5145    4.4410  -18.9434 C   0  0  0  0  0  0  0  0  0  0  0  0
   -4.3350    4.7089  -18.9788 O   0  0  0  0  0  0  0  0  0  0  0  0
   -6.4170    3.9629  -20.1183 C   0  0  0  0  0  0  0  0  0  0  0  0
   -6.0608    3.7546  -21.2583 O   0  0  0  0  0  0  0  0  0  0  0  0
   -7.6709    3.8134  -19.5687 N   0  0  0  0  0  0  0  0  0  0  0  0
   -7.4210    5.5312  -11.0872 C   0  0  0  0  0  0  0  0  0  0  0  0
   -7.5099    5.6133   -9.6973 C   0  0  0  0  0  0  0  0  0  0  0  0
   -8.0257    4.5222   -9.0285 C   0  0  0  0  0  0  0  0  0  0  0  0
   -8.1572    4.3149   -7.5835 C   0  0  0  0  0  0  0  0  0  0  0  0
   -7.7771    5.1105   -6.7450 O   0  0  0  0  0  0  0  0  0  0  0  0
  1  2  1  0
  2  3  1  0
  3  4  1  0
  4  5  1  0
  5  6  1  0
  6  7  1  0
  7  8  2  0
  8  9  1  0
  9 10  1  0
 10 11  1  0
 11 12  2  0
 11 13  1  0
 13 14  2  0
 14 15  1  0
 15 16  1  0
 15 17  2  0
 17 18  1  0
 18 19  2  0
 18 20  1  0
 20 21  2  0
 20 22  1  0
 22 23  2  0
 22 24  1  0
  9 25  2  0
 25 26  1  0
 26 27  2  0
 27 28  1  0
 28 29  2  0
 28  5  1  0
 27  7  1  0
 19 13  1  0
 24 17  1  0
M  END
>  <name>  (1037) 
P127079

>  <alias>  (1037) 
None

>  <smina_score_min>  (1037) 
-8.889

>  <exports>  (1037) 
['/opt/xchem-fragalysis-2/maxwin/BulkDock/OUTPUTS/openbind_xx01zvns2b_c2_elabs_1LOUTNY.sdf', '/opt/xchem-fragalysis-2/maxwin/BulkDock/OUTPUTS/openbind_xx01zvns2b_c2_elabs_1LSYIIV.sdf']

>  <tags>  (1037) 
syndirella_placed,openbind_xx01zvns2b_c2_elabs,openbind_xx01zvns2b_c2_elabs_scored_6.2plus,syndirella_product,openbind_xx01zvns2b_c2_elabs_scored,openbind_xx01zvns2b_c2_elabs_scored_top80percent,BulkDock Fragalysis export

>  <subsites>  (1037) 
1 - Z4590/B/203/1

>  <smiles>  (1037) 
COCCN1Cc2cc(NC(=O)c3cc(Br)c4c(c3)C(=O)C(=O)N4)ccc2C1=O

>  <HIPPO Pose ID>  (1037) 
127079

>  <energy_score>  (1037) 
-26.979447

>  <inchikey>  (1037) 
GAQSOJUIQUMGFX-UHFFFAOYSA-N

>  <gnina_score_min>  (1037) 
6.313

>  <gnina_score>  (1037) 
6.218

>  <ref_mols>  (1037) 
Z4756a

>  <HIPPO Compound ID>  (1037) 
184462

>  <distance_score>  (1037) 
0.511275

>  <rmsd(smina/fragmenstein)>  (1037) 
0.373

>  <ref_pdb>  (1037) 
Z4756a

>  <inspiration_score>  (1037) 
None

$$$$
P127080
     RDKit          3D

 29 32  0  0  0  0  0  0  0  0999 V2000
   -6.0565    3.7544  -21.2792 O   0  0  0  0  0  0  0  0  0  0  0  0
   -6.4081    3.9609  -20.1375 C   0  0  0  0  0  0  0  0  0  0  0  0
   -7.6580    3.8020  -19.5818 N   0  0  0  0  0  0  0  0  0  0  0  0
   -7.6470    4.1283  -18.2270 C   0  0  0  0  0  0  0  0  0  0  0  0
   -8.7059    4.1571  -17.3481 C   0  0  0  0  0  0  0  0  0  0  0  0
  -10.4662    4.0627  -17.9506 Br  0  0  0  0  0  0  0  0  0  0  0  0
   -8.4712    4.4614  -16.0095 C   0  0  0  0  0  0  0  0  0  0  0  0
   -7.1751    4.8007  -15.5842 C   0  0  0  0  0  0  0  0  0  0  0  0
   -6.9943    5.2894  -14.1983 C   0  0  0  0  0  0  0  0  0  0  0  0
   -6.4662    6.3199  -14.0444 O   0  0  0  0  0  0  0  0  0  0  0  0
   -7.6340    4.3256  -13.1686 N   0  0  0  0  0  0  0  0  0  0  0  0
   -7.8333    4.4692  -11.7985 C   0  0  0  0  0  0  0  0  0  0  0  0
   -7.5845    5.7029  -11.1763 C   0  0  0  0  0  0  0  0  0  0  0  0
   -7.7663    5.8597   -9.8035 C   0  0  0  0  0  0  0  0  0  0  0  0
   -8.1702    4.7596   -9.0735 C   0  0  0  0  0  0  0  0  0  0  0  0
   -8.4299    3.5310   -9.6817 C   0  0  0  0  0  0  0  0  0  0  0  0
   -8.2870    3.3734  -11.0520 C   0  0  0  0  0  0  0  0  0  0  0  0
   -8.8515    2.5451   -8.6304 C   0  0  0  0  0  0  0  0  0  0  0  0
   -8.4963    3.2085   -7.3585 N   0  0  0  0  0  0  0  0  0  0  0  0
   -9.3000    2.8148   -6.1945 C   0  0  0  0  0  0  0  0  0  0  0  0
   -8.9469    3.5256   -4.8690 C   0  0  0  0  0  0  0  0  0  0  0  0
   -9.1359    4.8684   -4.9653 F   0  0  0  0  0  0  0  0  0  0  0  0
   -9.7336    3.1138   -3.8511 F   0  0  0  0  0  0  0  0  0  0  0  0
   -7.6524    3.3380   -4.5097 F   0  0  0  0  0  0  0  0  0  0  0  0
   -8.4034    4.6519   -7.6050 C   0  0  0  0  0  0  0  0  0  0  0  0
   -6.1082    4.8541  -16.4884 C   0  0  0  0  0  0  0  0  0  0  0  0
   -6.3786    4.4949  -17.7957 C   0  0  0  0  0  0  0  0  0  0  0  0
   -5.5033    4.4486  -18.9687 C   0  0  0  0  0  0  0  0  0  0  0  0
   -4.3262    4.7253  -19.0117 O   0  0  0  0  0  0  0  0  0  0  0  0
  1  2  2  0
  2  3  1  0
  3  4  1  0
  4  5  2  0
  5  6  1  0
  5  7  1  0
  7  8  2  0
  8  9  1  0
  9 10  2  0
  9 11  1  0
 11 12  1  0
 12 13  2  0
 13 14  1  0
 14 15  2  0
 15 16  1  0
 16 17  2  0
 16 18  1  0
 18 19  1  0
 19 20  1  0
 20 21  1  0
 21 22  1  0
 21 23  1  0
 21 24  1  0
 19 25  1  0
  8 26  1  0
 26 27  2  0
 27 28  1  0
 28 29  2  0
 28  2  1  0
 27  4  1  0
 17 12  1  0
 25 15  1  0
M  END
>  <name>  (1038) 
P127080

>  <alias>  (1038) 
None

>  <smina_score_min>  (1038) 
-9.591

>  <exports>  (1038) 
['/opt/xchem-fragalysis-2/maxwin/BulkDock/OUTPUTS/openbind_xx01zvns2b_c2_elabs_1LOUTNY.sdf', '/opt/xchem-fragalysis-2/maxwin/BulkDock/OUTPUTS/openbind_xx01zvns2b_c2_elabs_1LSYIIV.sdf']

>  <tags>  (1038) 
syndirella_placed,openbind_xx01zvns2b_c2_elabs,openbind_xx01zvns2b_c2_elabs_scored_6.2plus,syndirella_product,openbind_xx01zvns2b_c2_elabs_scored,openbind_xx01zvns2b_c2_elabs_scored_top80percent,BulkDock Fragalysis export

>  <subsites>  (1038) 
1 - Z4590/B/203/1

>  <smiles>  (1038) 
O=C1Nc2c(Br)cc(C(=O)Nc3ccc4c(c3)CN(CC(F)(F)F)C4)cc2C1=O

>  <HIPPO Pose ID>  (1038) 
127080

>  <energy_score>  (1038) 
-36.054234

>  <inchikey>  (1038) 
KUSFOZDCHNTTCN-UHFFFAOYSA-N

>  <gnina_score_min>  (1038) 
6.444

>  <gnina_score>  (1038) 
6.196

>  <ref_mols>  (1038) 
Z4756a

>  <HIPPO Compound ID>  (1038) 
184461

>  <distance_score>  (1038) 
0.524187

>  <rmsd(smina/fragmenstein)>  (1038) 
0.656

>  <ref_pdb>  (1038) 
Z4756a

>  <inspiration_score>  (1038) 
None

$$$$
P127081
     RDKit          3D

 29 32  0  0  0  0  0  0  0  0999 V2000
   -8.6371    4.1833   -2.9249 C   0  0  0  0  0  0  0  0  0  0  0  0
   -8.7548    4.5677   -4.2880 O   0  0  0  0  0  0  0  0  0  0  0  0
  -10.0703    4.3405   -4.8000 C   0  0  0  0  0  0  0  0  0  0  0  0
  -10.2666    2.9297   -5.3429 C   0  0  0  0  0  0  0  0  0  0  0  0
   -9.2090    2.4381   -6.3385 C   0  0  0  0  0  0  0  0  0  0  0  0
   -9.2303    3.2062   -7.5765 N   0  0  0  0  0  0  0  0  0  0  0  0
   -8.3051    4.3535   -7.6147 C   0  0  0  0  0  0  0  0  0  0  0  0
   -8.0565    4.5576   -9.0767 C   0  0  0  0  0  0  0  0  0  0  0  0
   -7.5376    5.6536   -9.7376 C   0  0  0  0  0  0  0  0  0  0  0  0
   -7.4068    5.5817  -11.1261 C   0  0  0  0  0  0  0  0  0  0  0  0
   -7.7972    4.4281  -11.8241 C   0  0  0  0  0  0  0  0  0  0  0  0
   -7.7072    4.3697  -13.2104 N   0  0  0  0  0  0  0  0  0  0  0  0
   -6.9700    5.2934  -14.2095 C   0  0  0  0  0  0  0  0  0  0  0  0
   -6.3879    6.2898  -14.0312 O   0  0  0  0  0  0  0  0  0  0  0  0
   -7.1567    4.8242  -15.6041 C   0  0  0  0  0  0  0  0  0  0  0  0
   -8.4547    4.4904  -16.0324 C   0  0  0  0  0  0  0  0  0  0  0  0
   -8.6905    4.1740  -17.3673 C   0  0  0  0  0  0  0  0  0  0  0  0
  -10.4525    4.0655  -17.9612 Br  0  0  0  0  0  0  0  0  0  0  0  0
   -7.6315    4.1386  -18.2446 C   0  0  0  0  0  0  0  0  0  0  0  0
   -6.3626    4.5060  -17.8138 C   0  0  0  0  0  0  0  0  0  0  0  0
   -6.0899    4.8690  -16.5076 C   0  0  0  0  0  0  0  0  0  0  0  0
   -5.4867    4.4521  -18.9855 C   0  0  0  0  0  0  0  0  0  0  0  0
   -4.3083    4.7237  -19.0272 O   0  0  0  0  0  0  0  0  0  0  0  0
   -6.3919    3.9634  -20.1533 C   0  0  0  0  0  0  0  0  0  0  0  0
   -6.0402    3.7574  -21.2950 O   0  0  0  0  0  0  0  0  0  0  0  0
   -7.6417    3.8048  -19.5973 N   0  0  0  0  0  0  0  0  0  0  0  0
   -8.3235    3.3262  -11.1424 C   0  0  0  0  0  0  0  0  0  0  0  0
   -8.4397    3.4080   -9.7669 C   0  0  0  0  0  0  0  0  0  0  0  0
   -8.9450    2.3990   -8.7823 C   0  0  0  0  0  0  0  0  0  0  0  0
  1  2  1  0
  2  3  1  0
  3  4  1  0
  4  5  1  0
  5  6  1  0
  6  7  1  0
  7  8  1  0
  8  9  2  0
  9 10  1  0
 10 11  2  0
 11 12  1  0
 12 13  1  0
 13 14  2  0
 13 15  1  0
 15 16  2  0
 16 17  1  0
 17 18  1  0
 17 19  2  0
 19 20  1  0
 20 21  2  0
 20 22  1  0
 22 23  2  0
 22 24  1  0
 24 25  2  0
 24 26  1  0
 11 27  1  0
 27 28  2  0
 28 29  1  0
 29  6  1  0
 28  8  1  0
 21 15  1  0
 26 19  1  0
M  END
>  <name>  (1039) 
P127081

>  <alias>  (1039) 
None

>  <smina_score_min>  (1039) 
-8.745

>  <exports>  (1039) 
['/opt/xchem-fragalysis-2/maxwin/BulkDock/OUTPUTS/openbind_xx01zvns2b_c2_elabs_1LOUTNY.sdf', '/opt/xchem-fragalysis-2/maxwin/BulkDock/OUTPUTS/openbind_xx01zvns2b_c2_elabs_1LSYIIV.sdf']

>  <tags>  (1039) 
syndirella_placed,openbind_xx01zvns2b_c2_elabs,openbind_xx01zvns2b_c2_elabs_scored_6.2plus,syndirella_product,openbind_xx01zvns2b_c2_elabs_scored,openbind_xx01zvns2b_c2_elabs_scored_top80percent,BulkDock Fragalysis export

>  <subsites>  (1039) 
1 - Z4590/B/203/1

>  <smiles>  (1039) 
COCCCN1Cc2ccc(NC(=O)c3cc(Br)c4c(c3)C(=O)C(=O)N4)cc2C1

>  <HIPPO Pose ID>  (1039) 
127081

>  <energy_score>  (1039) 
-28.976159

>  <inchikey>  (1039) 
HWWYDNUCGUUPKY-UHFFFAOYSA-N

>  <gnina_score_min>  (1039) 
6.4

>  <gnina_score>  (1039) 
6.241

>  <ref_mols>  (1039) 
Z4756a

>  <HIPPO Compound ID>  (1039) 
184481

>  <distance_score>  (1039) 
0.550325

>  <rmsd(smina/fragmenstein)>  (1039) 
0.517

>  <ref_pdb>  (1039) 
Z4756a

>  <inspiration_score>  (1039) 
None

$$$$
P127085
     RDKit          3D

 29 33  0  0  0  0  0  0  0  0999 V2000
   -9.8899    4.6660   -1.5905 C   0  0  0  0  0  0  0  0  0  0  0  0
   -9.1639    4.7806   -2.8054 O   0  0  0  0  0  0  0  0  0  0  0  0
   -9.6121    3.8280   -3.7782 C   0  0  0  0  0  0  0  0  0  0  0  0
   -8.7067    3.9311   -4.9923 C   0  0  0  0  0  0  0  0  0  0  0  0
   -9.2145    3.1129   -6.1939 C   0  0  0  0  0  0  0  0  0  0  0  0
   -8.4133    3.3938   -7.3823 N   0  0  0  0  0  0  0  0  0  0  0  0
   -8.3148    4.8174   -7.7241 C   0  0  0  0  0  0  0  0  0  0  0  0
   -8.1888    4.8522   -9.2039 C   0  0  0  0  0  0  0  0  0  0  0  0
   -7.8607    5.9301   -9.9983 C   0  0  0  0  0  0  0  0  0  0  0  0
   -7.8040    5.7270  -11.3713 C   0  0  0  0  0  0  0  0  0  0  0  0
   -8.0891    4.4689  -11.9303 C   0  0  0  0  0  0  0  0  0  0  0  0
   -7.9879    4.3078  -13.3105 N   0  0  0  0  0  0  0  0  0  0  0  0
   -7.4997    5.2895  -14.4047 C   0  0  0  0  0  0  0  0  0  0  0  0
   -7.0344    6.3580  -14.3111 O   0  0  0  0  0  0  0  0  0  0  0  0
   -7.6173    4.7285  -15.7744 C   0  0  0  0  0  0  0  0  0  0  0  0
   -8.7961    4.0961  -16.2122 C   0  0  0  0  0  0  0  0  0  0  0  0
   -8.9240    3.6808  -17.5392 C   0  0  0  0  0  0  0  0  0  0  0  0
   -7.8551    3.9107  -18.3775 C   0  0  0  0  0  0  0  0  0  0  0  0
   -6.6808    4.5625  -17.9743 C   0  0  0  0  0  0  0  0  0  0  0  0
   -6.5557    4.9731  -16.6612 C   0  0  0  0  0  0  0  0  0  0  0  0
   -5.7845    4.6725  -19.1654 C   0  0  0  0  0  0  0  0  0  0  0  0
   -5.0746    5.9663  -19.4833 C   0  0  0  0  0  0  0  0  0  0  0  0
   -4.2858    4.7465  -19.0925 C   0  0  0  0  0  0  0  0  0  0  0  0
   -6.5242    3.9253  -20.2486 C   0  0  0  0  0  0  0  0  0  0  0  0
   -6.1047    3.7118  -21.3760 O   0  0  0  0  0  0  0  0  0  0  0  0
   -7.7433    3.5399  -19.7170 N   0  0  0  0  0  0  0  0  0  0  0  0
   -8.4496    3.3905  -11.1097 C   0  0  0  0  0  0  0  0  0  0  0  0
   -8.4844    3.5983   -9.7367 C   0  0  0  0  0  0  0  0  0  0  0  0
   -8.8366    2.6664   -8.6074 C   0  0  0  0  0  0  0  0  0  0  0  0
  1  2  1  0
  2  3  1  0
  3  4  1  0
  4  5  1  0
  5  6  1  0
  6  7  1  0
  7  8  1  0
  8  9  2  0
  9 10  1  0
 10 11  2  0
 11 12  1  0
 12 13  1  0
 13 14  2  0
 13 15  1  0
 15 16  2  0
 16 17  1  0
 17 18  2  0
 18 19  1  0
 19 20  2  0
 19 21  1  0
 21 22  1  0
 22 23  1  0
 21 24  1  0
 24 25  2  0
 24 26  1  0
 11 27  1  0
 27 28  2  0
 28 29  1  0
 29  6  1  0
 28  8  1  0
 20 15  1  0
 23 21  1  0
 26 18  1  0
M  END
>  <name>  (1040) 
P127085

>  <alias>  (1040) 
None

>  <smina_score_min>  (1040) 
-9.242

>  <exports>  (1040) 
['/opt/xchem-fragalysis-2/maxwin/BulkDock/OUTPUTS/openbind_xx01zvns2b_c2_elabs_1LOUTNY.sdf', '/opt/xchem-fragalysis-2/maxwin/BulkDock/OUTPUTS/openbind_xx01zvns2b_c2_elabs_1LSYIIV.sdf']

>  <tags>  (1040) 
syndirella_placed,openbind_xx01zvns2b_c2_elabs,openbind_xx01zvns2b_c2_elabs_scored_6.2plus,syndirella_product,openbind_xx01zvns2b_c2_elabs_scored,openbind_xx01zvns2b_c2_elabs_scored_top80percent,BulkDock Fragalysis export

>  <subsites>  (1040) 
1 - Z4590/B/203/1

>  <smiles>  (1040) 
COCCCN1Cc2ccc(NC(=O)c3ccc4c(c3)C3(CC3)C(=O)N4)cc2C1

>  <HIPPO Pose ID>  (1040) 
127085

>  <energy_score>  (1040) 
-42.84247

>  <inchikey>  (1040) 
BWZNEKALSRSAIO-UHFFFAOYSA-N

>  <gnina_score_min>  (1040) 
6.203

>  <gnina_score>  (1040) 
6.095

>  <ref_mols>  (1040) 
Z4756a

>  <HIPPO Compound ID>  (1040) 
184432

>  <distance_score>  (1040) 
0.40149

>  <rmsd(smina/fragmenstein)>  (1040) 
0.483

>  <ref_pdb>  (1040) 
Z4756a

>  <inspiration_score>  (1040) 
None

$$$$
P127094
     RDKit          3D

 30 34  0  0  0  0  0  0  0  0999 V2000
   -9.2516    2.6899   -6.2153 C   0  0  0  0  0  0  0  0  0  0  0  0
   -8.4126    3.1277   -7.3092 N   0  0  0  0  0  0  0  0  0  0  0  0
   -8.7799    2.5050   -8.5987 C   0  0  0  0  0  0  0  0  0  0  0  0
   -8.5056    3.5471   -9.6346 C   0  0  0  0  0  0  0  0  0  0  0  0
   -8.4838    3.4117  -11.0208 C   0  0  0  0  0  0  0  0  0  0  0  0
   -8.1519    4.5279  -11.7940 C   0  0  0  0  0  0  0  0  0  0  0  0
   -8.0081    4.3926  -13.1777 N   0  0  0  0  0  0  0  0  0  0  0  0
   -7.5406    5.4141  -14.2457 C   0  0  0  0  0  0  0  0  0  0  0  0
   -7.1300    6.5023  -14.1249 O   0  0  0  0  0  0  0  0  0  0  0  0
   -7.5729    4.8537  -15.6315 C   0  0  0  0  0  0  0  0  0  0  0  0
   -8.6862    4.1424  -16.1185 C   0  0  0  0  0  0  0  0  0  0  0  0
   -8.7333    3.7271  -17.4548 C   0  0  0  0  0  0  0  0  0  0  0  0
   -7.6611    4.0448  -18.2645 C   0  0  0  0  0  0  0  0  0  0  0  0
   -6.5641    4.7773  -17.8149 C   0  0  0  0  0  0  0  0  0  0  0  0
   -6.5043    5.1784  -16.4897 C   0  0  0  0  0  0  0  0  0  0  0  0
   -5.6238    5.0555  -18.9782 C   0  0  0  0  0  0  0  0  0  0  0  0
   -4.1600    4.6925  -18.6962 C   0  0  0  0  0  0  0  0  0  0  0  0
   -3.2119    5.5583  -19.5161 C   0  0  0  0  0  0  0  0  0  0  0  0
   -3.3232    6.9444  -19.1897 O   0  0  0  0  0  0  0  0  0  0  0  0
   -4.6264    7.3710  -18.8077 C   0  0  0  0  0  0  0  0  0  0  0  0
   -5.7290    6.5271  -19.4252 C   0  0  0  0  0  0  0  0  0  0  0  0
   -6.2729    4.1599  -20.0855 C   0  0  0  0  0  0  0  0  0  0  0  0
   -5.8344    3.9166  -21.2015 O   0  0  0  0  0  0  0  0  0  0  0  0
   -7.4896    3.6965  -19.5920 N   0  0  0  0  0  0  0  0  0  0  0  0
   -7.9110    5.7614  -11.1676 C   0  0  0  0  0  0  0  0  0  0  0  0
   -7.9509    5.8865   -9.7730 C   0  0  0  0  0  0  0  0  0  0  0  0
   -8.2256    4.7628   -9.0101 C   0  0  0  0  0  0  0  0  0  0  0  0
   -8.1459    4.5701   -7.5089 C   0  0  0  0  0  0  0  0  0  0  0  0
   -6.6929    4.8449   -7.0651 C   0  0  0  0  0  0  0  0  0  0  0  0
   -9.0464    5.5226   -6.7082 C   0  0  0  0  0  0  0  0  0  0  0  0
  1  2  1  0
  2  3  1  0
  3  4  1  0
  4  5  2  0
  5  6  1  0
  6  7  1  0
  7  8  1  0
  8  9  2  0
  8 10  1  0
 10 11  2  0
 11 12  1  0
 12 13  2  0
 13 14  1  0
 14 15  2  0
 14 16  1  0
 16 17  1  0
 17 18  1  0
 18 19  1  0
 19 20  1  0
 20 21  1  0
 16 22  1  0
 22 23  2  0
 22 24  1  0
  6 25  2  0
 25 26  1  0
 26 27  2  0
 27 28  1  0
 28 29  1  0
 28 30  1  0
 28  2  1  0
 27  4  1  0
 15 10  1  0
 21 16  1  0
 24 13  1  0
M  END
>  <name>  (1041) 
P127094

>  <alias>  (1041) 
None

>  <smina_score_min>  (1041) 
-9.934

>  <exports>  (1041) 
['/opt/xchem-fragalysis-2/maxwin/BulkDock/OUTPUTS/openbind_xx01zvns2b_c2_elabs_1LOUTNY.sdf', '/opt/xchem-fragalysis-2/maxwin/BulkDock/OUTPUTS/openbind_xx01zvns2b_c2_elabs_1LSYIIV.sdf']

>  <tags>  (1041) 
syndirella_placed,openbind_xx01zvns2b_c2_elabs,openbind_xx01zvns2b_c2_elabs_scored_6.2plus,syndirella_product,openbind_xx01zvns2b_c2_elabs_scored,openbind_xx01zvns2b_c1_elabs_filtered,openbind_xx01zvns2b_c2_elabs_scored_top80percent,BulkDock Fragalysis export

>  <subsites>  (1041) 
1 - Z4590/B/203/1

>  <smiles>  (1041) 
CN1Cc2cc(NC(=O)c3ccc4c(c3)C3(CCOCC3)C(=O)N4)ccc2C1(C)C

>  <HIPPO Pose ID>  (1041) 
127094

>  <energy_score>  (1041) 
-50.10489

>  <inchikey>  (1041) 
PHSBQOWJNFCZBH-UHFFFAOYSA-N

>  <gnina_score_min>  (1041) 
6.234

>  <gnina_score>  (1041) 
6.139

>  <ref_mols>  (1041) 
Z4756a

>  <HIPPO Compound ID>  (1041) 
142812

>  <distance_score>  (1041) 
0.405975

>  <rmsd(smina/fragmenstein)>  (1041) 
0.348

>  <ref_pdb>  (1041) 
Z4756a

>  <inspiration_score>  (1041) 
None

$$$$
P127102
     RDKit          3D

 30 34  0  0  0  0  0  0  0  0999 V2000
   -4.1436    4.6750  -18.9961 C   0  0  0  0  0  0  0  0  0  0  0  0
   -5.6114    5.0162  -19.2151 C   0  0  0  0  0  0  0  0  0  0  0  0
   -5.6948    6.5007  -19.5900 C   0  0  0  0  0  0  0  0  0  0  0  0
   -6.2753    4.1343  -20.3123 C   0  0  0  0  0  0  0  0  0  0  0  0
   -5.8577    3.9082  -21.4395 O   0  0  0  0  0  0  0  0  0  0  0  0
   -7.4771    3.6509  -19.7973 N   0  0  0  0  0  0  0  0  0  0  0  0
   -7.6289    4.0003  -18.4684 C   0  0  0  0  0  0  0  0  0  0  0  0
   -8.6907    3.6877  -17.6424 C   0  0  0  0  0  0  0  0  0  0  0  0
   -8.6180    4.1096  -16.3125 C   0  0  0  0  0  0  0  0  0  0  0  0
   -7.4839    4.8114  -15.8595 C   0  0  0  0  0  0  0  0  0  0  0  0
   -7.3930    5.3723  -14.4912 C   0  0  0  0  0  0  0  0  0  0  0  0
   -6.9153    6.4347  -14.3932 O   0  0  0  0  0  0  0  0  0  0  0  0
   -7.8755    4.3858  -13.4021 N   0  0  0  0  0  0  0  0  0  0  0  0
   -7.9555    4.5329  -12.0232 C   0  0  0  0  0  0  0  0  0  0  0  0
   -7.5487    5.7584  -11.4685 C   0  0  0  0  0  0  0  0  0  0  0  0
   -7.4980    5.9394  -10.0985 C   0  0  0  0  0  0  0  0  0  0  0  0
   -7.8733    4.8797   -9.3030 C   0  0  0  0  0  0  0  0  0  0  0  0
   -8.3353    3.6733   -9.8277 C   0  0  0  0  0  0  0  0  0  0  0  0
   -8.3760    3.4790  -11.2026 C   0  0  0  0  0  0  0  0  0  0  0  0
   -8.7646    2.7650   -8.7059 C   0  0  0  0  0  0  0  0  0  0  0  0
   -8.4218    3.5434   -7.4822 N   0  0  0  0  0  0  0  0  0  0  0  0
   -9.1457    3.5018   -6.3011 C   0  0  0  0  0  0  0  0  0  0  0  0
   -8.7856    4.3465   -5.2271 C   0  0  0  0  0  0  0  0  0  0  0  0
   -9.5942    4.5108   -4.1111 C   0  0  0  0  0  0  0  0  0  0  0  0
  -10.7733    3.7957   -4.0355 C   0  0  0  0  0  0  0  0  0  0  0  0
  -11.0954    2.8593   -5.0151 C   0  0  0  0  0  0  0  0  0  0  0  0
  -10.2693    2.6969   -6.1256 C   0  0  0  0  0  0  0  0  0  0  0  0
   -7.8609    4.8543   -7.8233 C   0  0  0  0  0  0  0  0  0  0  0  0
   -6.4264    5.1294  -16.7293 C   0  0  0  0  0  0  0  0  0  0  0  0
   -6.5200    4.7309  -18.0429 C   0  0  0  0  0  0  0  0  0  0  0  0
  1  2  1  0
  2  3  1  0
  2  4  1  0
  4  5  2  0
  4  6  1  0
  6  7  1  0
  7  8  2  0
  8  9  1  0
  9 10  2  0
 10 11  1  0
 11 12  2  0
 11 13  1  0
 13 14  1  0
 14 15  2  0
 15 16  1  0
 16 17  2  0
 17 18  1  0
 18 19  2  0
 18 20  1  0
 20 21  1  0
 21 22  1  0
 22 23  2  0
 23 24  1  0
 24 25  2  0
 25 26  1  0
 26 27  2  0
 21 28  1  0
 10 29  1  0
 29 30  2  0
 30  2  1  0
 30  7  1  0
 19 14  1  0
 27 22  1  0
 28 17  1  0
M  END
>  <name>  (1042) 
P127102

>  <alias>  (1042) 
None

>  <smina_score_min>  (1042) 
-11.13

>  <exports>  (1042) 
['/opt/xchem-fragalysis-2/maxwin/BulkDock/OUTPUTS/openbind_xx01zvns2b_c2_elabs_1LOUTNY.sdf', '/opt/xchem-fragalysis-2/maxwin/BulkDock/OUTPUTS/openbind_xx01zvns2b_c2_elabs_1LSYIIV.sdf']

>  <tags>  (1042) 
syndirella_placed,openbind_xx01zvns2b_c2_elabs,openbind_xx01zvns2b_c2_elabs_scored_6.2plus,syndirella_product,openbind_xx01zvns2b_c2_elabs_scored,openbind_xx01zvns2b_c2_elabs_scored_top80percent,BulkDock Fragalysis export

>  <subsites>  (1042) 
1 - Z4590/B/203/1

>  <smiles>  (1042) 
CC1(C)C(=O)Nc2ccc(C(=O)Nc3ccc4c(c3)CN(c3ccccc3)C4)cc21

>  <HIPPO Pose ID>  (1042) 
127102

>  <energy_score>  (1042) 
-30.480274

>  <inchikey>  (1042) 
FAQQATZOCKNSTO-UHFFFAOYSA-N

>  <gnina_score_min>  (1042) 
6.252

>  <gnina_score>  (1042) 
6.122

>  <ref_mols>  (1042) 
Z4756a

>  <HIPPO Compound ID>  (1042) 
184523

>  <distance_score>  (1042) 
0.582955

>  <rmsd(smina/fragmenstein)>  (1042) 
0.617

>  <ref_pdb>  (1042) 
Z4756a

>  <inspiration_score>  (1042) 
None

$$$$
P127103
     RDKit          3D

 30 33  0  0  0  0  0  0  0  0999 V2000
   -8.5794    5.8334   -1.1574 C   0  0  0  0  0  0  0  0  0  0  0  0
   -9.1238    5.4957   -2.5315 C   0  0  0  0  0  0  0  0  0  0  0  0
   -9.1462    4.0791   -2.6650 O   0  0  0  0  0  0  0  0  0  0  0  0
   -9.7020    3.6343   -3.9044 C   0  0  0  0  0  0  0  0  0  0  0  0
   -8.6913    3.7074   -5.0350 C   0  0  0  0  0  0  0  0  0  0  0  0
   -9.2298    3.0093   -6.2936 C   0  0  0  0  0  0  0  0  0  0  0  0
   -8.4059    3.3252   -7.4504 N   0  0  0  0  0  0  0  0  0  0  0  0
   -8.3088    4.7569   -7.7534 C   0  0  0  0  0  0  0  0  0  0  0  0
   -8.1745    4.8277   -9.2309 C   0  0  0  0  0  0  0  0  0  0  0  0
   -7.8396    5.9211   -9.9994 C   0  0  0  0  0  0  0  0  0  0  0  0
   -7.7517    5.7393  -11.3738 C   0  0  0  0  0  0  0  0  0  0  0  0
   -8.0160    4.4883  -11.9595 C   0  0  0  0  0  0  0  0  0  0  0  0
   -7.8666    4.3424  -13.3360 N   0  0  0  0  0  0  0  0  0  0  0  0
   -7.4570    5.3707  -14.4168 C   0  0  0  0  0  0  0  0  0  0  0  0
   -7.1064    6.4806  -14.3121 O   0  0  0  0  0  0  0  0  0  0  0  0
   -7.5094    4.8095  -15.7900 C   0  0  0  0  0  0  0  0  0  0  0  0
   -8.6370    4.1042  -16.2559 C   0  0  0  0  0  0  0  0  0  0  0  0
   -8.7025    3.6887  -17.5880 C   0  0  0  0  0  0  0  0  0  0  0  0
   -7.6387    4.0090  -18.4072 C   0  0  0  0  0  0  0  0  0  0  0  0
   -6.5342    4.7424  -17.9721 C   0  0  0  0  0  0  0  0  0  0  0  0
   -6.4501    5.1395  -16.6534 C   0  0  0  0  0  0  0  0  0  0  0  0
   -5.6244    5.0328  -19.1453 C   0  0  0  0  0  0  0  0  0  0  0  0
   -5.7156    6.5161  -19.5205 C   0  0  0  0  0  0  0  0  0  0  0  0
   -4.1561    4.6960  -18.9264 C   0  0  0  0  0  0  0  0  0  0  0  0
   -6.2824    4.1514  -20.2490 C   0  0  0  0  0  0  0  0  0  0  0  0
   -5.8611    3.9252  -21.3749 O   0  0  0  0  0  0  0  0  0  0  0  0
   -7.4846    3.6667  -19.7381 N   0  0  0  0  0  0  0  0  0  0  0  0
   -8.3908    3.3964  -11.1678 C   0  0  0  0  0  0  0  0  0  0  0  0
   -8.4525    3.5826   -9.7944 C   0  0  0  0  0  0  0  0  0  0  0  0
   -8.8074    2.6226   -8.6949 C   0  0  0  0  0  0  0  0  0  0  0  0
  1  2  1  0
  2  3  1  0
  3  4  1  0
  4  5  1  0
  5  6  1  0
  6  7  1  0
  7  8  1  0
  8  9  1  0
  9 10  2  0
 10 11  1  0
 11 12  2  0
 12 13  1  0
 13 14  1  0
 14 15  2  0
 14 16  1  0
 16 17  2  0
 17 18  1  0
 18 19  2  0
 19 20  1  0
 20 21  2  0
 20 22  1  0
 22 23  1  0
 22 24  1  0
 22 25  1  0
 25 26  2  0
 25 27  1  0
 12 28  1  0
 28 29  2  0
 29 30  1  0
 30  7  1  0
 29  9  1  0
 21 16  1  0
 27 19  1  0
M  END
>  <name>  (1043) 
P127103

>  <alias>  (1043) 
None

>  <smina_score_min>  (1043) 
-9.068

>  <exports>  (1043) 
['/opt/xchem-fragalysis-2/maxwin/BulkDock/OUTPUTS/openbind_xx01zvns2b_c2_elabs_1LOUTNY.sdf', '/opt/xchem-fragalysis-2/maxwin/BulkDock/OUTPUTS/openbind_xx01zvns2b_c2_elabs_1LSYIIV.sdf']

>  <tags>  (1043) 
syndirella_placed,openbind_xx01zvns2b_c2_elabs,openbind_xx01zvns2b_c2_elabs_scored_6.2plus,syndirella_product,openbind_xx01zvns2b_c2_elabs_scored,openbind_xx01zvns2b_c2_elabs_scored_top80percent,BulkDock Fragalysis export

>  <subsites>  (1043) 
1 - Z4590/B/203/1

>  <smiles>  (1043) 
CCOCCCN1Cc2ccc(NC(=O)c3ccc4c(c3)C(C)(C)C(=O)N4)cc2C1

>  <HIPPO Pose ID>  (1043) 
127103

>  <energy_score>  (1043) 
-77.621895

>  <inchikey>  (1043) 
SIDAVJJOPXKBIY-UHFFFAOYSA-N

>  <gnina_score_min>  (1043) 
6.235

>  <gnina_score>  (1043) 
6.015

>  <ref_mols>  (1043) 
Z4756a

>  <HIPPO Compound ID>  (1043) 
184538

>  <distance_score>  (1043) 
0.45376

>  <rmsd(smina/fragmenstein)>  (1043) 
0.965

>  <ref_pdb>  (1043) 
Z4756a

>  <inspiration_score>  (1043) 
None

$$$$
P127109
     RDKit          3D

 30 34  0  0  0  0  0  0  0  0999 V2000
   -9.7604    4.0226   -4.5956 C   0  0  0  0  0  0  0  0  0  0  0  0
  -10.2712    2.8215   -5.3734 C   0  0  0  0  0  0  0  0  0  0  0  0
   -9.2975    2.2807   -6.4296 C   0  0  0  0  0  0  0  0  0  0  0  0
   -9.3262    3.0557   -7.6603 N   0  0  0  0  0  0  0  0  0  0  0  0
   -8.5008    4.2742   -7.6912 C   0  0  0  0  0  0  0  0  0  0  0  0
   -8.2513    4.4947   -9.1524 C   0  0  0  0  0  0  0  0  0  0  0  0
   -7.8378    5.6290   -9.8230 C   0  0  0  0  0  0  0  0  0  0  0  0
   -7.7010    5.5587  -11.2137 C   0  0  0  0  0  0  0  0  0  0  0  0
   -7.9724    4.3670  -11.9078 C   0  0  0  0  0  0  0  0  0  0  0  0
   -7.8310    4.2911  -13.2922 N   0  0  0  0  0  0  0  0  0  0  0  0
   -7.4535    5.3786  -14.3240 C   0  0  0  0  0  0  0  0  0  0  0  0
   -7.1269    6.4892  -14.1684 O   0  0  0  0  0  0  0  0  0  0  0  0
   -7.5100    4.8592  -15.7193 C   0  0  0  0  0  0  0  0  0  0  0  0
   -8.6319    4.1523  -16.1981 C   0  0  0  0  0  0  0  0  0  0  0  0
   -8.6869    3.7366  -17.5316 C   0  0  0  0  0  0  0  0  0  0  0  0
   -7.6159    4.0540  -18.3427 C   0  0  0  0  0  0  0  0  0  0  0  0
   -6.5182    4.7913  -17.8995 C   0  0  0  0  0  0  0  0  0  0  0  0
   -6.4490    5.1931  -16.5772 C   0  0  0  0  0  0  0  0  0  0  0  0
   -5.5804    5.0650  -19.0638 C   0  0  0  0  0  0  0  0  0  0  0  0
   -5.6862    6.5356  -19.5162 C   0  0  0  0  0  0  0  0  0  0  0  0
   -4.5714    7.3776  -18.9183 C   0  0  0  0  0  0  0  0  0  0  0  0
   -3.2763    6.9439  -19.3197 O   0  0  0  0  0  0  0  0  0  0  0  0
   -3.1701    5.5508  -19.6186 C   0  0  0  0  0  0  0  0  0  0  0  0
   -4.1164    4.7037  -18.7774 C   0  0  0  0  0  0  0  0  0  0  0  0
   -6.2301    4.1628  -20.1644 C   0  0  0  0  0  0  0  0  0  0  0  0
   -5.7944    3.9177  -21.2810 O   0  0  0  0  0  0  0  0  0  0  0  0
   -7.4436    3.6961  -19.6668 N   0  0  0  0  0  0  0  0  0  0  0  0
   -8.3806    3.2259  -11.2134 C   0  0  0  0  0  0  0  0  0  0  0  0
   -8.5183    3.3107   -9.8388 C   0  0  0  0  0  0  0  0  0  0  0  0
   -8.9461    2.2682   -8.8544 C   0  0  0  0  0  0  0  0  0  0  0  0
  1  2  1  0
  2  3  1  0
  3  4  1  0
  4  5  1  0
  5  6  1  0
  6  7  2  0
  7  8  1  0
  8  9  2  0
  9 10  1  0
 10 11  1  0
 11 12  2  0
 11 13  1  0
 13 14  2  0
 14 15  1  0
 15 16  2  0
 16 17  1  0
 17 18  2  0
 17 19  1  0
 19 20  1  0
 20 21  1  0
 21 22  1  0
 22 23  1  0
 23 24  1  0
 19 25  1  0
 25 26  2  0
 25 27  1  0
  9 28  1  0
 28 29  2  0
 29 30  1  0
 30  4  1  0
 29  6  1  0
 18 13  1  0
 24 19  1  0
 27 16  1  0
M  END
>  <name>  (1044) 
P127109

>  <alias>  (1044) 
None

>  <smina_score_min>  (1044) 
-10.256

>  <exports>  (1044) 
['/opt/xchem-fragalysis-2/maxwin/BulkDock/OUTPUTS/openbind_xx01zvns2b_c2_elabs_1LOUTNY.sdf', '/opt/xchem-fragalysis-2/maxwin/BulkDock/OUTPUTS/openbind_xx01zvns2b_c2_elabs_1LSYIIV.sdf']

>  <tags>  (1044) 
syndirella_placed,openbind_xx01zvns2b_c2_elabs,openbind_xx01zvns2b_c2_elabs_scored_6.2plus,syndirella_product,openbind_xx01zvns2b_c2_elabs_scored,openbind_xx01zvns2b_c2_elabs_scored_top80percent,BulkDock Fragalysis export

>  <subsites>  (1044) 
1 - Z4590/B/203/1

>  <smiles>  (1044) 
CCCN1Cc2ccc(NC(=O)c3ccc4c(c3)C3(CCOCC3)C(=O)N4)cc2C1

>  <HIPPO Pose ID>  (1044) 
127109

>  <energy_score>  (1044) 
-23.799699

>  <inchikey>  (1044) 
GUFFWGQGCQNNKN-UHFFFAOYSA-N

>  <gnina_score_min>  (1044) 
6.231

>  <gnina_score>  (1044) 
6.147

>  <ref_mols>  (1044) 
Z4756a

>  <HIPPO Compound ID>  (1044) 
184503

>  <distance_score>  (1044) 
0.437174

>  <rmsd(smina/fragmenstein)>  (1044) 
0.32

>  <ref_pdb>  (1044) 
Z4756a

>  <inspiration_score>  (1044) 
None

$$$$
P127124
     RDKit          3D

 30 34  0  0  0  0  0  0  0  0999 V2000
   -6.0722    3.7157  -21.4393 O   0  0  0  0  0  0  0  0  0  0  0  0
   -6.3959    3.9285  -20.2916 C   0  0  0  0  0  0  0  0  0  0  0  0
   -7.6254    3.7557  -19.6947 N   0  0  0  0  0  0  0  0  0  0  0  0
   -7.5791    4.1286  -18.3539 C   0  0  0  0  0  0  0  0  0  0  0  0
   -8.6071    4.1759  -17.4407 C   0  0  0  0  0  0  0  0  0  0  0  0
  -10.3907    4.0289  -17.9552 Br  0  0  0  0  0  0  0  0  0  0  0  0
   -8.3234    4.5349  -16.1278 C   0  0  0  0  0  0  0  0  0  0  0  0
   -7.0121    4.9021  -15.7717 C   0  0  0  0  0  0  0  0  0  0  0  0
   -6.7703    5.4170  -14.4140 C   0  0  0  0  0  0  0  0  0  0  0  0
   -6.2465    6.4513  -14.2875 O   0  0  0  0  0  0  0  0  0  0  0  0
   -7.3619    4.4601  -13.3591 N   0  0  0  0  0  0  0  0  0  0  0  0
   -7.5122    4.6115  -11.9919 C   0  0  0  0  0  0  0  0  0  0  0  0
   -7.1968    5.8345  -11.3824 C   0  0  0  0  0  0  0  0  0  0  0  0
   -7.3324    5.9965  -10.0100 C   0  0  0  0  0  0  0  0  0  0  0  0
   -7.7735    4.9154   -9.2752 C   0  0  0  0  0  0  0  0  0  0  0  0
   -8.1059    3.7027   -9.8773 C   0  0  0  0  0  0  0  0  0  0  0  0
   -7.9940    3.5348  -11.2446 C   0  0  0  0  0  0  0  0  0  0  0  0
   -8.5946    2.7308   -8.8516 C   0  0  0  0  0  0  0  0  0  0  0  0
   -8.4486    3.4819   -7.5808 N   0  0  0  0  0  0  0  0  0  0  0  0
   -9.3195    3.2247   -6.5350 C   0  0  0  0  0  0  0  0  0  0  0  0
  -10.0817    2.0568   -6.5017 C   0  0  0  0  0  0  0  0  0  0  0  0
  -11.1287    1.9184   -5.6039 C   0  0  0  0  0  0  0  0  0  0  0  0
  -11.3908    2.9116   -4.6796 C   0  0  0  0  0  0  0  0  0  0  0  0
  -10.5349    3.9936   -4.5668 C   0  0  0  0  0  0  0  0  0  0  0  0
   -9.5028    4.1414   -5.4856 C   0  0  0  0  0  0  0  0  0  0  0  0
   -7.9930    4.8551   -7.8060 C   0  0  0  0  0  0  0  0  0  0  0  0
   -5.9784    4.9320  -16.7054 C   0  0  0  0  0  0  0  0  0  0  0  0
   -6.2996    4.5259  -17.9810 C   0  0  0  0  0  0  0  0  0  0  0  0
   -5.4621    4.4550  -19.1734 C   0  0  0  0  0  0  0  0  0  0  0  0
   -4.2885    4.7366  -19.2584 O   0  0  0  0  0  0  0  0  0  0  0  0
  1  2  2  0
  2  3  1  0
  3  4  1  0
  4  5  2  0
  5  6  1  0
  5  7  1  0
  7  8  2  0
  8  9  1  0
  9 10  2  0
  9 11  1  0
 11 12  1  0
 12 13  2  0
 13 14  1  0
 14 15  2  0
 15 16  1  0
 16 17  2  0
 16 18  1  0
 18 19  1  0
 19 20  1  0
 20 21  2  0
 21 22  1  0
 22 23  2  0
 23 24  1  0
 24 25  2  0
 19 26  1  0
  8 27  1  0
 27 28  2  0
 28 29  1  0
 29 30  2  0
 29  2  1  0
 28  4  1  0
 17 12  1  0
 25 20  1  0
 26 15  1  0
M  END
>  <name>  (1045) 
P127124

>  <alias>  (1045) 
None

>  <smina_score_min>  (1045) 
-9.96

>  <exports>  (1045) 
['/opt/xchem-fragalysis-2/maxwin/BulkDock/OUTPUTS/openbind_xx01zvns2b_c2_elabs_1LOUTNY.sdf', '/opt/xchem-fragalysis-2/maxwin/BulkDock/OUTPUTS/openbind_xx01zvns2b_c2_elabs_1LSYIIV.sdf']

>  <tags>  (1045) 
syndirella_placed,openbind_xx01zvns2b_c2_elabs,openbind_xx01zvns2b_c2_elabs_scored_6.2plus,syndirella_product,openbind_xx01zvns2b_c2_elabs_scored,openbind_xx01zvns2b_c2_elabs_scored_top80percent,BulkDock Fragalysis export

>  <subsites>  (1045) 
1 - Z4590/B/203/1

>  <smiles>  (1045) 
O=C1Nc2c(Br)cc(C(=O)Nc3ccc4c(c3)CN(c3ccccc3)C4)cc2C1=O

>  <HIPPO Pose ID>  (1045) 
127124

>  <energy_score>  (1045) 
-2.114962

>  <inchikey>  (1045) 
QEALSARONZMXSX-UHFFFAOYSA-N

>  <gnina_score_min>  (1045) 
6.363

>  <gnina_score>  (1045) 
6.303

>  <ref_mols>  (1045) 
Z4756a

>  <HIPPO Compound ID>  (1045) 
184525

>  <distance_score>  (1045) 
0.755688

>  <rmsd(smina/fragmenstein)>  (1045) 
0.4

>  <ref_pdb>  (1045) 
Z4756a

>  <inspiration_score>  (1045) 
None

$$$$
P127129
     RDKit          3D

 30 34  0  0  0  0  0  0  0  0999 V2000
   -7.7578    3.2597  -20.1867 C   0  0  0  0  0  0  0  0  0  0  0  0
   -6.8927    4.0331  -19.3924 N   0  0  0  0  0  0  0  0  0  0  0  0
   -5.6460    4.4459  -19.8348 C   0  0  0  0  0  0  0  0  0  0  0  0
   -5.1756    4.2963  -20.9535 O   0  0  0  0  0  0  0  0  0  0  0  0
   -4.9595    5.0919  -18.6393 C   0  0  0  0  0  0  0  0  0  0  0  0
   -5.9943    4.9566  -17.5617 C   0  0  0  0  0  0  0  0  0  0  0  0
   -5.9273    5.3398  -16.2439 C   0  0  0  0  0  0  0  0  0  0  0  0
   -7.0575    5.1250  -15.4460 C   0  0  0  0  0  0  0  0  0  0  0  0
   -7.0411    5.6624  -14.0807 C   0  0  0  0  0  0  0  0  0  0  0  0
   -6.5853    6.7254  -13.9200 O   0  0  0  0  0  0  0  0  0  0  0  0
   -7.6820    4.6845  -13.0712 N   0  0  0  0  0  0  0  0  0  0  0  0
   -7.8053    4.7661  -11.6964 C   0  0  0  0  0  0  0  0  0  0  0  0
   -7.4116    5.9620  -11.0783 C   0  0  0  0  0  0  0  0  0  0  0  0
   -7.3885    6.0670   -9.7044 C   0  0  0  0  0  0  0  0  0  0  0  0
   -7.7837    4.9645   -8.9805 C   0  0  0  0  0  0  0  0  0  0  0  0
   -8.2550    3.7930   -9.5726 C   0  0  0  0  0  0  0  0  0  0  0  0
   -8.2663    3.6728  -10.9521 C   0  0  0  0  0  0  0  0  0  0  0  0
   -8.7118    2.8340   -8.5058 C   0  0  0  0  0  0  0  0  0  0  0  0
   -8.3602    3.5388   -7.2426 N   0  0  0  0  0  0  0  0  0  0  0  0
   -9.1108    3.4940   -6.0776 C   0  0  0  0  0  0  0  0  0  0  0  0
  -10.3144    2.8047   -5.9704 C   0  0  0  0  0  0  0  0  0  0  0  0
  -11.1481    3.0099   -4.8749 C   0  0  0  0  0  0  0  0  0  0  0  0
  -10.7610    3.8728   -3.8500 C   0  0  0  0  0  0  0  0  0  0  0  0
   -9.5089    4.4527   -3.8561 C   0  0  0  0  0  0  0  0  0  0  0  0
   -8.6889    4.2421   -4.9536 C   0  0  0  0  0  0  0  0  0  0  0  0
   -7.7675    4.8527   -7.5074 C   0  0  0  0  0  0  0  0  0  0  0  0
   -8.2384    4.5691  -15.9560 C   0  0  0  0  0  0  0  0  0  0  0  0
   -8.2914    4.1987  -17.2910 C   0  0  0  0  0  0  0  0  0  0  0  0
   -9.8175    3.7297  -17.9015 Cl  0  0  0  0  0  0  0  0  0  0  0  0
   -7.1494    4.3661  -18.0683 C   0  0  0  0  0  0  0  0  0  0  0  0
  1  2  1  0
  2  3  1  0
  3  4  2  0
  3  5  1  0
  5  6  1  0
  6  7  2  0
  7  8  1  0
  8  9  1  0
  9 10  2  0
  9 11  1  0
 11 12  1  0
 12 13  2  0
 13 14  1  0
 14 15  2  0
 15 16  1  0
 16 17  2  0
 16 18  1  0
 18 19  1  0
 19 20  1  0
 20 21  2  0
 21 22  1  0
 22 23  2  0
 23 24  1  0
 24 25  2  0
 19 26  1  0
  8 27  2  0
 27 28  1  0
 28 29  1  0
 28 30  2  0
 30  2  1  0
 30  6  1  0
 17 12  1  0
 25 20  1  0
 26 15  1  0
M  END
>  <name>  (1046) 
P127129

>  <alias>  (1046) 
None

>  <smina_score_min>  (1046) 
-9.166

>  <exports>  (1046) 
['/opt/xchem-fragalysis-2/maxwin/BulkDock/OUTPUTS/openbind_xx01zvns2b_c2_elabs_1LOUTNY.sdf', '/opt/xchem-fragalysis-2/maxwin/BulkDock/OUTPUTS/openbind_xx01zvns2b_c2_elabs_1LSYIIV.sdf']

>  <tags>  (1046) 
syndirella_placed,openbind_xx01zvns2b_c2_elabs,openbind_xx01zvns2b_c2_elabs_scored_6.2plus,syndirella_product,openbind_xx01zvns2b_c2_elabs_scored,openbind_xx01zvns2b_c2_elabs_scored_top80percent,BulkDock Fragalysis export

>  <subsites>  (1046) 
1 - Z4590/B/203/1

>  <smiles>  (1046) 
CN1C(=O)Cc2cc(C(=O)Nc3ccc4c(c3)CN(c3ccccc3)C4)cc(Cl)c21

>  <HIPPO Pose ID>  (1046) 
127129

>  <energy_score>  (1046) 
-16.404611

>  <inchikey>  (1046) 
WPQNTNALIPJZLK-UHFFFAOYSA-N

>  <gnina_score_min>  (1046) 
6.234

>  <gnina_score>  (1046) 
6.251

>  <ref_mols>  (1046) 
Z4756a

>  <HIPPO Compound ID>  (1046) 
184535

>  <distance_score>  (1046) 
0.926079

>  <rmsd(smina/fragmenstein)>  (1046) 
0.485

>  <ref_pdb>  (1046) 
Z4756a

>  <inspiration_score>  (1046) 
None

$$$$
P127150
     RDKit          3D

 31 35  0  0  0  0  0  0  0  0999 V2000
   -6.9805    6.4347  -14.1814 O   0  0  0  0  0  0  0  0  0  0  0  0
   -7.3974    5.3533  -14.3298 C   0  0  0  0  0  0  0  0  0  0  0  0
   -7.8539    4.3033  -13.2898 N   0  0  0  0  0  0  0  0  0  0  0  0
   -7.9776    4.3955  -11.9062 C   0  0  0  0  0  0  0  0  0  0  0  0
   -7.6860    5.6053  -11.2519 C   0  0  0  0  0  0  0  0  0  0  0  0
   -7.7858    5.7141   -9.8659 C   0  0  0  0  0  0  0  0  0  0  0  0
   -8.1912    4.6000   -9.1610 C   0  0  0  0  0  0  0  0  0  0  0  0
   -8.4917    3.3945   -9.8007 C   0  0  0  0  0  0  0  0  0  0  0  0
   -8.3828    3.2725  -11.1760 C   0  0  0  0  0  0  0  0  0  0  0  0
   -8.9214    2.3933   -8.7656 C   0  0  0  0  0  0  0  0  0  0  0  0
   -9.2529    3.2447   -7.6053 N   0  0  0  0  0  0  0  0  0  0  0  0
   -9.2532    2.5826   -6.3014 C   0  0  0  0  0  0  0  0  0  0  0  0
   -9.7923    3.5144   -5.2038 C   0  0  0  0  0  0  0  0  0  0  0  0
  -10.0150    2.8457   -4.0517 F   0  0  0  0  0  0  0  0  0  0  0  0
   -8.8705    4.4734   -4.9059 F   0  0  0  0  0  0  0  0  0  0  0  0
   -8.3942    4.4371   -7.6922 C   0  0  0  0  0  0  0  0  0  0  0  0
   -7.4759    4.8299  -15.7204 C   0  0  0  0  0  0  0  0  0  0  0  0
   -8.6129    4.1373  -16.1852 C   0  0  0  0  0  0  0  0  0  0  0  0
   -8.6919    3.7290  -17.5191 C   0  0  0  0  0  0  0  0  0  0  0  0
   -7.6304    4.0423  -18.3433 C   0  0  0  0  0  0  0  0  0  0  0  0
   -6.5165    4.7623  -17.9116 C   0  0  0  0  0  0  0  0  0  0  0  0
   -6.4214    5.1542  -16.5901 C   0  0  0  0  0  0  0  0  0  0  0  0
   -5.6065    5.0603  -19.0902 C   0  0  0  0  0  0  0  0  0  0  0  0
   -4.1295    4.7289  -18.8669 C   0  0  0  0  0  0  0  0  0  0  0  0
   -3.2466    5.2374  -20.0039 C   0  0  0  0  0  0  0  0  0  0  0  0
   -3.4470    6.6352  -20.2169 O   0  0  0  0  0  0  0  0  0  0  0  0
   -4.7927    6.9295  -20.5800 C   0  0  0  0  0  0  0  0  0  0  0  0
   -5.7243    6.5535  -19.4394 C   0  0  0  0  0  0  0  0  0  0  0  0
   -6.2813    4.1691  -20.1881 C   0  0  0  0  0  0  0  0  0  0  0  0
   -5.8678    3.9214  -21.3123 O   0  0  0  0  0  0  0  0  0  0  0  0
   -7.4875    3.7030  -19.6748 N   0  0  0  0  0  0  0  0  0  0  0  0
  1  2  2  0
  2  3  1  0
  3  4  1  0
  4  5  2  0
  5  6  1  0
  6  7  2  0
  7  8  1  0
  8  9  2  0
  8 10  1  0
 10 11  1  0
 11 12  1  0
 12 13  1  0
 13 14  1  0
 13 15  1  0
 11 16  1  0
  2 17  1  0
 17 18  2  0
 18 19  1  0
 19 20  2  0
 20 21  1  0
 21 22  2  0
 21 23  1  0
 23 24  1  0
 24 25  1  0
 25 26  1  0
 26 27  1  0
 27 28  1  0
 23 29  1  0
 29 30  2  0
 29 31  1  0
  9  4  1  0
 22 17  1  0
 28 23  1  0
 16  7  1  0
 31 20  1  0
M  END
>  <name>  (1047) 
P127150

>  <alias>  (1047) 
None

>  <smina_score_min>  (1047) 
-10.732

>  <exports>  (1047) 
['/opt/xchem-fragalysis-2/maxwin/BulkDock/OUTPUTS/openbind_xx01zvns2b_c2_elabs_1LOUTNY.sdf', '/opt/xchem-fragalysis-2/maxwin/BulkDock/OUTPUTS/openbind_xx01zvns2b_c2_elabs_1LSYIIV.sdf']

>  <tags>  (1047) 
syndirella_placed,openbind_xx01zvns2b_c2_elabs,openbind_xx01zvns2b_c2_elabs_scored_6.2plus,syndirella_product,openbind_xx01zvns2b_c2_elabs_scored,openbind_xx01zvns2b_c2_elabs_scored_top80percent,BulkDock Fragalysis export

>  <subsites>  (1047) 
1 - Z4590/B/203/1

>  <smiles>  (1047) 
O=C(Nc1ccc2c(c1)CN(CC(F)F)C2)c1ccc2c(c1)C1(CCOCC1)C(=O)N2

>  <HIPPO Pose ID>  (1047) 
127150

>  <energy_score>  (1047) 
-50.654555

>  <inchikey>  (1047) 
YUYDFHQNVWLZCG-UHFFFAOYSA-N

>  <gnina_score_min>  (1047) 
6.317

>  <gnina_score>  (1047) 
6.196

>  <ref_mols>  (1047) 
Z4756a

>  <HIPPO Compound ID>  (1047) 
184563

>  <distance_score>  (1047) 
0.434944

>  <rmsd(smina/fragmenstein)>  (1047) 
0.573

>  <ref_pdb>  (1047) 
Z4756a

>  <inspiration_score>  (1047) 
None

$$$$
P127151
     RDKit          3D

 31 35  0  0  0  0  0  0  0  0999 V2000
  -11.6219    2.5493   -4.7692 C   0  0  0  0  0  0  0  0  0  0  0  0
  -10.6656    3.7166   -4.5888 C   0  0  0  0  0  0  0  0  0  0  0  0
   -9.3068    3.5118   -5.2545 C   0  0  0  0  0  0  0  0  0  0  0  0
   -9.4349    2.8102   -6.6094 C   0  0  0  0  0  0  0  0  0  0  0  0
   -8.3765    3.1466   -7.5455 N   0  0  0  0  0  0  0  0  0  0  0  0
   -8.2568    4.5884   -7.8114 C   0  0  0  0  0  0  0  0  0  0  0  0
   -8.1120    4.7185   -9.2838 C   0  0  0  0  0  0  0  0  0  0  0  0
   -7.8412    5.8531  -10.0186 C   0  0  0  0  0  0  0  0  0  0  0  0
   -7.7752    5.7252  -11.4014 C   0  0  0  0  0  0  0  0  0  0  0  0
   -8.0032    4.4847  -12.0217 C   0  0  0  0  0  0  0  0  0  0  0  0
   -7.9292    4.3803  -13.4021 N   0  0  0  0  0  0  0  0  0  0  0  0
   -7.4887    5.4092  -14.4617 C   0  0  0  0  0  0  0  0  0  0  0  0
   -7.1918    6.5319  -14.3484 O   0  0  0  0  0  0  0  0  0  0  0  0
   -7.5107    4.8381  -15.8289 C   0  0  0  0  0  0  0  0  0  0  0  0
   -8.6307    4.1252  -16.3050 C   0  0  0  0  0  0  0  0  0  0  0  0
   -8.6756    3.6985  -17.6320 C   0  0  0  0  0  0  0  0  0  0  0  0
   -7.6003    4.0186  -18.4349 C   0  0  0  0  0  0  0  0  0  0  0  0
   -6.5016    4.7540  -17.9885 C   0  0  0  0  0  0  0  0  0  0  0  0
   -6.4374    5.1612  -16.6720 C   0  0  0  0  0  0  0  0  0  0  0  0
   -5.5753    5.0588  -19.1509 C   0  0  0  0  0  0  0  0  0  0  0  0
   -5.6843    6.5546  -19.4930 C   0  0  0  0  0  0  0  0  0  0  0  0
   -4.7388    6.9324  -20.6213 C   0  0  0  0  0  0  0  0  0  0  0  0
   -3.3980    6.6339  -20.2429 O   0  0  0  0  0  0  0  0  0  0  0  0
   -3.2023    5.2356  -20.0285 C   0  0  0  0  0  0  0  0  0  0  0  0
   -4.1017    4.7265  -18.9045 C   0  0  0  0  0  0  0  0  0  0  0  0
   -6.2310    4.1689  -20.2611 C   0  0  0  0  0  0  0  0  0  0  0  0
   -5.8076    3.9383  -21.3850 O   0  0  0  0  0  0  0  0  0  0  0  0
   -7.4326    3.6781  -19.7620 N   0  0  0  0  0  0  0  0  0  0  0  0
   -8.2966    3.3501  -11.2659 C   0  0  0  0  0  0  0  0  0  0  0  0
   -8.3275    3.4855   -9.8907 C   0  0  0  0  0  0  0  0  0  0  0  0
   -8.5950    2.4534   -8.8448 C   0  0  0  0  0  0  0  0  0  0  0  0
  1  2  1  0
  2  3  1  0
  3  4  1  0
  4  5  1  0
  5  6  1  0
  6  7  1  0
  7  8  2  0
  8  9  1  0
  9 10  2  0
 10 11  1  0
 11 12  1  0
 12 13  2  0
 12 14  1  0
 14 15  2  0
 15 16  1  0
 16 17  2  0
 17 18  1  0
 18 19  2  0
 18 20  1  0
 20 21  1  0
 21 22  1  0
 22 23  1  0
 23 24  1  0
 24 25  1  0
 20 26  1  0
 26 27  2  0
 26 28  1  0
 10 29  1  0
 29 30  2  0
 30 31  1  0
 31  5  1  0
 30  7  1  0
 19 14  1  0
 25 20  1  0
 28 17  1  0
M  END
>  <name>  (1048) 
P127151

>  <alias>  (1048) 
None

>  <smina_score_min>  (1048) 
-9.86

>  <exports>  (1048) 
['/opt/xchem-fragalysis-2/maxwin/BulkDock/OUTPUTS/openbind_xx01zvns2b_c2_elabs_1LOUTNY.sdf', '/opt/xchem-fragalysis-2/maxwin/BulkDock/OUTPUTS/openbind_xx01zvns2b_c2_elabs_1LSYIIV.sdf']

>  <tags>  (1048) 
syndirella_placed,openbind_xx01zvns2b_c2_elabs,openbind_xx01zvns2b_c2_elabs_scored_6.2plus,syndirella_product,openbind_xx01zvns2b_c2_elabs_scored,openbind_xx01zvns2b_c2_elabs_scored_top80percent,BulkDock Fragalysis export

>  <subsites>  (1048) 
1 - Z4590/B/203/1

>  <smiles>  (1048) 
CCCCN1Cc2ccc(NC(=O)c3ccc4c(c3)C3(CCOCC3)C(=O)N4)cc2C1

>  <HIPPO Pose ID>  (1048) 
127151

>  <energy_score>  (1048) 
-29.336797

>  <inchikey>  (1048) 
JSBCJAXRQCXIIT-UHFFFAOYSA-N

>  <gnina_score_min>  (1048) 
6.322

>  <gnina_score>  (1048) 
6.265

>  <ref_mols>  (1048) 
Z4756a

>  <HIPPO Compound ID>  (1048) 
184564

>  <distance_score>  (1048) 
0.454663

>  <rmsd(smina/fragmenstein)>  (1048) 
0.337

>  <ref_pdb>  (1048) 
Z4756a

>  <inspiration_score>  (1048) 
None

$$$$
P127162
     RDKit          3D

 31 34  0  0  0  0  0  0  0  0999 V2000
  -10.3345    4.6409   -5.3139 C   0  0  0  0  0  0  0  0  0  0  0  0
  -10.4214    3.1625   -4.9711 C   0  0  0  0  0  0  0  0  0  0  0  0
  -11.8475    2.7645   -4.6497 C   0  0  0  0  0  0  0  0  0  0  0  0
   -9.6113    3.0266   -3.8023 O   0  0  0  0  0  0  0  0  0  0  0  0
   -9.9809    2.1991   -6.0689 C   0  0  0  0  0  0  0  0  0  0  0  0
   -8.5735    2.4185   -6.5524 C   0  0  0  0  0  0  0  0  0  0  0  0
   -8.5509    3.2737   -7.7119 N   0  0  0  0  0  0  0  0  0  0  0  0
   -7.7725    4.4886   -7.7800 C   0  0  0  0  0  0  0  0  0  0  0  0
   -7.7483    4.7668   -9.2390 C   0  0  0  0  0  0  0  0  0  0  0  0
   -7.1707    5.8164   -9.9184 C   0  0  0  0  0  0  0  0  0  0  0  0
   -7.1806    5.7658  -11.3116 C   0  0  0  0  0  0  0  0  0  0  0  0
   -7.7574    4.6781  -11.9905 C   0  0  0  0  0  0  0  0  0  0  0  0
   -7.6815    4.5831  -13.3670 N   0  0  0  0  0  0  0  0  0  0  0  0
   -6.8833    5.4221  -14.3874 C   0  0  0  0  0  0  0  0  0  0  0  0
   -6.2251    6.3731  -14.2345 O   0  0  0  0  0  0  0  0  0  0  0  0
   -7.1058    4.9172  -15.7579 C   0  0  0  0  0  0  0  0  0  0  0  0
   -8.4106    4.5666  -16.1488 C   0  0  0  0  0  0  0  0  0  0  0  0
   -8.6683    4.1927  -17.4617 C   0  0  0  0  0  0  0  0  0  0  0  0
  -10.4455    4.0640  -17.9963 Br  0  0  0  0  0  0  0  0  0  0  0  0
   -7.6233    4.1283  -18.3524 C   0  0  0  0  0  0  0  0  0  0  0  0
   -6.3488    4.5165  -17.9543 C   0  0  0  0  0  0  0  0  0  0  0  0
   -6.0517    4.9244  -16.6716 C   0  0  0  0  0  0  0  0  0  0  0  0
   -5.4900    4.4392  -19.1324 C   0  0  0  0  0  0  0  0  0  0  0  0
   -4.3142    4.7170  -19.1978 O   0  0  0  0  0  0  0  0  0  0  0  0
   -6.4079    3.9193  -20.2691 C   0  0  0  0  0  0  0  0  0  0  0  0
   -6.0679    3.7092  -21.4128 O   0  0  0  0  0  0  0  0  0  0  0  0
   -7.6477    3.7526  -19.6928 N   0  0  0  0  0  0  0  0  0  0  0  0
   -8.3990    3.6541  -11.3021 C   0  0  0  0  0  0  0  0  0  0  0  0
   -8.3782    3.7348   -9.9308 C   0  0  0  0  0  0  0  0  0  0  0  0
   -8.9099    2.7899   -8.9587 C   0  0  0  0  0  0  0  0  0  0  0  0
   -9.5321    1.7867   -9.2362 O   0  0  0  0  0  0  0  0  0  0  0  0
  1  2  1  0
  2  3  1  0
  2  4  1  0
  2  5  1  0
  5  6  1  0
  6  7  1  0
  7  8  1  0
  8  9  1  0
  9 10  2  0
 10 11  1  0
 11 12  2  0
 12 13  1  0
 13 14  1  0
 14 15  2  0
 14 16  1  0
 16 17  2  0
 17 18  1  0
 18 19  1  0
 18 20  2  0
 20 21  1  0
 21 22  2  0
 21 23  1  0
 23 24  2  0
 23 25  1  0
 25 26  2  0
 25 27  1  0
 12 28  1  0
 28 29  2  0
 29 30  1  0
 30 31  2  0
 30  7  1  0
 29  9  1  0
 22 16  1  0
 27 20  1  0
M  END
>  <name>  (1049) 
P127162

>  <alias>  (1049) 
None

>  <smina_score_min>  (1049) 
-9.263

>  <exports>  (1049) 
['/opt/xchem-fragalysis-2/maxwin/BulkDock/OUTPUTS/openbind_xx01zvns2b_c2_elabs_1LOUTNY.sdf', '/opt/xchem-fragalysis-2/maxwin/BulkDock/OUTPUTS/openbind_xx01zvns2b_c2_elabs_1LSYIIV.sdf']

>  <tags>  (1049) 
syndirella_placed,openbind_xx01zvns2b_c2_elabs,openbind_xx01zvns2b_c2_elabs_scored_6.2plus,syndirella_product,openbind_xx01zvns2b_c2_elabs_scored,openbind_xx01zvns2b_c2_elabs_scored_top80percent,BulkDock Fragalysis export

>  <subsites>  (1049) 
1 - Z4590/B/203/1

>  <smiles>  (1049) 
CC(C)(O)CCN1Cc2ccc(NC(=O)c3cc(Br)c4c(c3)C(=O)C(=O)N4)cc2C1=O

>  <HIPPO Pose ID>  (1049) 
127162

>  <energy_score>  (1049) 
-36.420964

>  <inchikey>  (1049) 
MDLBSIKBACBQBZ-UHFFFAOYSA-N

>  <gnina_score_min>  (1049) 
6.256

>  <gnina_score>  (1049) 
6.22

>  <ref_mols>  (1049) 
Z4756a

>  <HIPPO Compound ID>  (1049) 
184573

>  <distance_score>  (1049) 
0.673709

>  <rmsd(smina/fragmenstein)>  (1049) 
0.716

>  <ref_pdb>  (1049) 
Z4756a

>  <inspiration_score>  (1049) 
None

$$$$
P127177
     RDKit          3D

 32 36  0  0  0  0  0  0  0  0999 V2000
   -4.1688    4.6961  -18.9073 C   0  0  0  0  0  0  0  0  0  0  0  0
   -5.6362    5.0328  -19.1312 C   0  0  0  0  0  0  0  0  0  0  0  0
   -5.7249    6.5162  -19.5068 C   0  0  0  0  0  0  0  0  0  0  0  0
   -6.2905    4.1524  -20.2383 C   0  0  0  0  0  0  0  0  0  0  0  0
   -5.8638    3.9238  -21.3616 O   0  0  0  0  0  0  0  0  0  0  0  0
   -7.4973    3.6724  -19.7334 N   0  0  0  0  0  0  0  0  0  0  0  0
   -7.6570    4.0159  -18.4035 C   0  0  0  0  0  0  0  0  0  0  0  0
   -8.7263    3.7015  -17.5898 C   0  0  0  0  0  0  0  0  0  0  0  0
   -8.6658    4.1155  -16.2564 C   0  0  0  0  0  0  0  0  0  0  0  0
   -7.5365    4.8108  -15.7795 C   0  0  0  0  0  0  0  0  0  0  0  0
   -7.4641    5.3490  -14.3937 C   0  0  0  0  0  0  0  0  0  0  0  0
   -7.0289    6.4268  -14.2692 O   0  0  0  0  0  0  0  0  0  0  0  0
   -7.9813    4.3468  -13.3325 N   0  0  0  0  0  0  0  0  0  0  0  0
   -7.9821    4.4222  -11.9427 C   0  0  0  0  0  0  0  0  0  0  0  0
   -7.4304    5.5551  -11.3120 C   0  0  0  0  0  0  0  0  0  0  0  0
   -7.3523    5.6383   -9.9253 C   0  0  0  0  0  0  0  0  0  0  0  0
   -7.8535    4.5766   -9.2076 C   0  0  0  0  0  0  0  0  0  0  0  0
   -8.4434    3.4653   -9.8018 C   0  0  0  0  0  0  0  0  0  0  0  0
   -8.5008    3.3644  -11.1837 C   0  0  0  0  0  0  0  0  0  0  0  0
   -8.9351    2.5375   -8.7376 C   0  0  0  0  0  0  0  0  0  0  0  0
   -8.7021    3.3115   -7.5114 N   0  0  0  0  0  0  0  0  0  0  0  0
   -8.8514    2.7224   -6.1846 C   0  0  1  0  0  0  0  0  0  0  0  0
   -9.0283    3.7498   -5.0657 C   0  0  0  0  0  0  0  0  0  0  0  0
  -10.3605    3.4378   -4.4756 C   0  0  0  0  0  0  0  0  0  0  0  0
  -10.8635    4.0655   -3.5571 O   0  0  0  0  0  0  0  0  0  0  0  0
  -10.9040    2.3745   -5.1067 N   0  0  0  0  0  0  0  0  0  0  0  0
  -10.1004    1.8707   -6.0708 C   0  0  0  0  0  0  0  0  0  0  0  0
  -10.3759    0.9120   -6.7728 O   0  0  0  0  0  0  0  0  0  0  0  0
   -7.8870    4.4020   -7.7593 C   0  0  0  0  0  0  0  0  0  0  0  0
   -7.2896    5.1073   -6.9671 O   0  0  0  0  0  0  0  0  0  0  0  0
   -6.4718    5.1351  -16.6410 C   0  0  0  0  0  0  0  0  0  0  0  0
   -6.5520    4.7435  -17.9621 C   0  0  0  0  0  0  0  0  0  0  0  0
  1  2  1  0
  2  3  1  0
  2  4  1  0
  4  5  2  0
  4  6  1  0
  6  7  1  0
  7  8  2  0
  8  9  1  0
  9 10  2  0
 10 11  1  0
 11 12  2  0
 11 13  1  0
 13 14  1  0
 14 15  2  0
 15 16  1  0
 16 17  2  0
 17 18  1  0
 18 19  2  0
 18 20  1  0
 20 21  1  0
 22 21  1  6
 22 23  1  0
 23 24  1  0
 24 25  2  0
 24 26  1  0
 26 27  1  0
 27 28  2  0
 21 29  1  0
 29 30  2  0
 10 31  1  0
 31 32  2  0
 32  2  1  0
 32  7  1  0
 19 14  1  0
 27 22  1  0
 29 17  1  0
M  END
>  <name>  (1050) 
P127177

>  <alias>  (1050) 
None

>  <smina_score_min>  (1050) 
-10.843

>  <exports>  (1050) 
['/opt/xchem-fragalysis-2/maxwin/BulkDock/OUTPUTS/openbind_xx01zvns2b_c2_elabs_1LOUTNY.sdf', '/opt/xchem-fragalysis-2/maxwin/BulkDock/OUTPUTS/openbind_xx01zvns2b_c2_elabs_1LSYIIV.sdf']

>  <tags>  (1050) 
syndirella_placed,openbind_xx01zvns2b_c2_elabs,openbind_xx01zvns2b_c2_elabs_scored_6.2plus,syndirella_product,openbind_xx01zvns2b_c2_elabs_scored,openbind_xx01zvns2b_c2_elabs_scored_top80percent,BulkDock Fragalysis export

>  <subsites>  (1050) 
1 - Z4590/B/203/1

>  <smiles>  (1050) 
CC1(C)C(=O)Nc2ccc(C(=O)Nc3ccc4c(c3)CN([C@H]3CC(=O)NC3=O)C4=O)cc21

>  <HIPPO Pose ID>  (1050) 
127177

>  <energy_score>  (1050) 
-50.114474

>  <inchikey>  (1050) 
SCMMKAGYYHOMKV-KRWDZBQOSA-N

>  <gnina_score_min>  (1050) 
6.2

>  <gnina_score>  (1050) 
6.109

>  <ref_mols>  (1050) 
Z4756a

>  <HIPPO Compound ID>  (1050) 
184615

>  <distance_score>  (1050) 
0.465993

>  <rmsd(smina/fragmenstein)>  (1050) 
0.506

>  <ref_pdb>  (1050) 
Z4756a

>  <inspiration_score>  (1050) 
None

$$$$
P127187
     RDKit          3D

 32 36  0  0  0  0  0  0  0  0999 V2000
   -9.7952    4.6325   -1.5825 C   0  0  0  0  0  0  0  0  0  0  0  0
   -9.0195    4.6679   -2.7718 O   0  0  0  0  0  0  0  0  0  0  0  0
   -9.5696    3.8204   -3.7867 C   0  0  0  0  0  0  0  0  0  0  0  0
   -8.6437    3.8624   -4.9884 C   0  0  0  0  0  0  0  0  0  0  0  0
   -9.2043    3.1002   -6.2026 C   0  0  0  0  0  0  0  0  0  0  0  0
   -8.3994    3.3754   -7.3880 N   0  0  0  0  0  0  0  0  0  0  0  0
   -8.2926    4.8024   -7.7181 C   0  0  0  0  0  0  0  0  0  0  0  0
   -8.1889    4.8533   -9.1982 C   0  0  0  0  0  0  0  0  0  0  0  0
   -7.8807    5.9434   -9.9825 C   0  0  0  0  0  0  0  0  0  0  0  0
   -7.8517    5.7594  -11.3582 C   0  0  0  0  0  0  0  0  0  0  0  0
   -8.1366    4.5065  -11.9303 C   0  0  0  0  0  0  0  0  0  0  0  0
   -8.0750    4.3803  -13.3173 N   0  0  0  0  0  0  0  0  0  0  0  0
   -7.5502    5.3614  -14.3937 C   0  0  0  0  0  0  0  0  0  0  0  0
   -7.1589    6.4584  -14.2928 O   0  0  0  0  0  0  0  0  0  0  0  0
   -7.5678    4.7890  -15.7653 C   0  0  0  0  0  0  0  0  0  0  0  0
   -8.6782    4.0798  -16.2606 C   0  0  0  0  0  0  0  0  0  0  0  0
   -8.7111    3.6718  -17.5974 C   0  0  0  0  0  0  0  0  0  0  0  0
   -7.6316    4.0012  -18.3934 C   0  0  0  0  0  0  0  0  0  0  0  0
   -6.5420    4.7371  -17.9319 C   0  0  0  0  0  0  0  0  0  0  0  0
   -6.4928    5.1262  -16.6073 C   0  0  0  0  0  0  0  0  0  0  0  0
   -5.5952    5.0357  -19.0816 C   0  0  0  0  0  0  0  0  0  0  0  0
   -4.1294    4.6894  -18.7855 C   0  0  0  0  0  0  0  0  0  0  0  0
   -3.1850    5.5578  -19.6070 C   0  0  0  0  0  0  0  0  0  0  0  0
   -3.3101    6.9459  -19.2927 O   0  0  0  0  0  0  0  0  0  0  0  0
   -4.6132    7.3581  -18.8944 C   0  0  0  0  0  0  0  0  0  0  0  0
   -5.7125    6.5117  -19.5143 C   0  0  0  0  0  0  0  0  0  0  0  0
   -6.2278    4.1425  -20.1990 C   0  0  0  0  0  0  0  0  0  0  0  0
   -5.7807    3.9154  -21.3147 O   0  0  0  0  0  0  0  0  0  0  0  0
   -7.4434    3.6607  -19.7195 N   0  0  0  0  0  0  0  0  0  0  0  0
   -8.4702    3.4133  -11.1186 C   0  0  0  0  0  0  0  0  0  0  0  0
   -8.4868    3.6049   -9.7424 C   0  0  0  0  0  0  0  0  0  0  0  0
   -8.8274    2.6613   -8.6201 C   0  0  0  0  0  0  0  0  0  0  0  0
  1  2  1  0
  2  3  1  0
  3  4  1  0
  4  5  1  0
  5  6  1  0
  6  7  1  0
  7  8  1  0
  8  9  2  0
  9 10  1  0
 10 11  2  0
 11 12  1  0
 12 13  1  0
 13 14  2  0
 13 15  1  0
 15 16  2  0
 16 17  1  0
 17 18  2  0
 18 19  1  0
 19 20  2  0
 19 21  1  0
 21 22  1  0
 22 23  1  0
 23 24  1  0
 24 25  1  0
 25 26  1  0
 21 27  1  0
 27 28  2  0
 27 29  1  0
 11 30  1  0
 30 31  2  0
 31 32  1  0
 32  6  1  0
 31  8  1  0
 20 15  1  0
 26 21  1  0
 29 18  1  0
M  END
>  <name>  (1051) 
P127187

>  <alias>  (1051) 
None

>  <smina_score_min>  (1051) 
-9.501

>  <exports>  (1051) 
['/opt/xchem-fragalysis-2/maxwin/BulkDock/OUTPUTS/openbind_xx01zvns2b_c2_elabs_1LOUTNY.sdf', '/opt/xchem-fragalysis-2/maxwin/BulkDock/OUTPUTS/openbind_xx01zvns2b_c2_elabs_1LSYIIV.sdf']

>  <tags>  (1051) 
syndirella_placed,openbind_xx01zvns2b_c2_elabs,openbind_xx01zvns2b_c2_elabs_scored_6.2plus,syndirella_product,openbind_xx01zvns2b_c2_elabs_scored,openbind_xx01zvns2b_c1_elabs_filtered,openbind_xx01zvns2b_c2_elabs_scored_top80percent,BulkDock Fragalysis export

>  <subsites>  (1051) 
1 - Z4590/B/203/1

>  <smiles>  (1051) 
COCCCN1Cc2ccc(NC(=O)c3ccc4c(c3)C3(CCOCC3)C(=O)N4)cc2C1

>  <HIPPO Pose ID>  (1051) 
127187

>  <energy_score>  (1051) 
-49.99663

>  <inchikey>  (1051) 
FWMQLMYBMDGDPT-UHFFFAOYSA-N

>  <gnina_score_min>  (1051) 
6.425

>  <gnina_score>  (1051) 
6.216

>  <ref_mols>  (1051) 
Z4756a

>  <HIPPO Compound ID>  (1051) 
142814

>  <distance_score>  (1051) 
0.447043

>  <rmsd(smina/fragmenstein)>  (1051) 
0.752

>  <ref_pdb>  (1051) 
Z4756a

>  <inspiration_score>  (1051) 
None

$$$$
P127188
     RDKit          3D

 32 36  0  0  0  0  0  0  0  0999 V2000
   -7.0876    6.4529  -14.0935 O   0  0  0  0  0  0  0  0  0  0  0  0
   -7.4976    5.3664  -14.2286 C   0  0  0  0  0  0  0  0  0  0  0  0
   -7.9698    4.3335  -13.1753 N   0  0  0  0  0  0  0  0  0  0  0  0
   -8.1199    4.4525  -11.7931 C   0  0  0  0  0  0  0  0  0  0  0  0
   -7.9106    5.6921  -11.1625 C   0  0  0  0  0  0  0  0  0  0  0  0
   -8.0218    5.8259   -9.7759 C   0  0  0  0  0  0  0  0  0  0  0  0
   -8.3221    4.6993   -9.0366 C   0  0  0  0  0  0  0  0  0  0  0  0
   -8.5374    3.4637   -9.6552 C   0  0  0  0  0  0  0  0  0  0  0  0
   -8.4562    3.3253  -11.0345 C   0  0  0  0  0  0  0  0  0  0  0  0
   -8.8484    2.4422   -8.5984 C   0  0  0  0  0  0  0  0  0  0  0  0
   -8.4073    3.1044   -7.3570 N   0  0  0  0  0  0  0  0  0  0  0  0
   -8.9120    2.5615   -6.0962 C   0  0  0  0  0  0  0  0  0  0  0  0
  -10.4172    2.4733   -5.8178 C   0  0  0  0  0  0  0  0  0  0  0  0
  -10.6601    2.2470   -4.5094 F   0  0  0  0  0  0  0  0  0  0  0  0
  -11.0522    3.6290   -6.1216 F   0  0  0  0  0  0  0  0  0  0  0  0
  -10.9832    1.4706   -6.5157 F   0  0  0  0  0  0  0  0  0  0  0  0
   -8.4733    4.5491   -7.5549 C   0  0  0  0  0  0  0  0  0  0  0  0
   -7.5457    4.8243  -15.6172 C   0  0  0  0  0  0  0  0  0  0  0  0
   -8.6757    4.1345  -16.0994 C   0  0  0  0  0  0  0  0  0  0  0  0
   -8.7436    3.7341  -17.4376 C   0  0  0  0  0  0  0  0  0  0  0  0
   -7.6758    4.0485  -18.2524 C   0  0  0  0  0  0  0  0  0  0  0  0
   -6.5629    4.7591  -17.8040 C   0  0  0  0  0  0  0  0  0  0  0  0
   -6.4799    5.1443  -16.4773 C   0  0  0  0  0  0  0  0  0  0  0  0
   -5.6371    5.0512  -18.9716 C   0  0  0  0  0  0  0  0  0  0  0  0
   -5.7377    6.5484  -19.3187 C   0  0  0  0  0  0  0  0  0  0  0  0
   -4.5989    6.9407  -20.2429 C   0  0  0  0  0  0  0  0  0  0  0  0
   -3.3283    6.8200  -19.6087 O   0  0  0  0  0  0  0  0  0  0  0  0
   -3.2664    5.8680  -18.5491 C   0  0  0  0  0  0  0  0  0  0  0  0
   -4.1680    4.6568  -18.7632 C   0  0  0  0  0  0  0  0  0  0  0  0
   -6.3180    4.1897  -20.0918 C   0  0  0  0  0  0  0  0  0  0  0  0
   -5.9036    3.9636  -21.2208 O   0  0  0  0  0  0  0  0  0  0  0  0
   -7.5284    3.7243  -19.5877 N   0  0  0  0  0  0  0  0  0  0  0  0
  1  2  2  0
  2  3  1  0
  3  4  1  0
  4  5  2  0
  5  6  1  0
  6  7  2  0
  7  8  1  0
  8  9  2  0
  8 10  1  0
 10 11  1  0
 11 12  1  0
 12 13  1  0
 13 14  1  0
 13 15  1  0
 13 16  1  0
 11 17  1  0
  2 18  1  0
 18 19  2  0
 19 20  1  0
 20 21  2  0
 21 22  1  0
 22 23  2  0
 22 24  1  0
 24 25  1  0
 25 26  1  0
 26 27  1  0
 27 28  1  0
 28 29  1  0
 24 30  1  0
 30 31  2  0
 30 32  1  0
  9  4  1  0
 23 18  1  0
 29 24  1  0
 17  7  1  0
 32 21  1  0
M  END
>  <name>  (1052) 
P127188

>  <alias>  (1052) 
None

>  <smina_score_min>  (1052) 
-9.899

>  <exports>  (1052) 
['/opt/xchem-fragalysis-2/maxwin/BulkDock/OUTPUTS/openbind_xx01zvns2b_c2_elabs_1LOUTNY.sdf', '/opt/xchem-fragalysis-2/maxwin/BulkDock/OUTPUTS/openbind_xx01zvns2b_c2_elabs_1LSYIIV.sdf']

>  <tags>  (1052) 
syndirella_placed,openbind_xx01zvns2b_c2_elabs,openbind_xx01zvns2b_c2_elabs_scored_6.2plus,syndirella_product,openbind_xx01zvns2b_c2_elabs_scored,openbind_xx01zvns2b_c2_elabs_scored_top80percent,BulkDock Fragalysis export

>  <subsites>  (1052) 
1 - Z4590/B/203/1

>  <smiles>  (1052) 
O=C(Nc1ccc2c(c1)CN(CC(F)(F)F)C2)c1ccc2c(c1)C1(CCOCC1)C(=O)N2

>  <HIPPO Pose ID>  (1052) 
127188

>  <energy_score>  (1052) 
-46.256575

>  <inchikey>  (1052) 
JHMDOOMMEBWOFM-UHFFFAOYSA-N

>  <gnina_score_min>  (1052) 
6.338

>  <gnina_score>  (1052) 
6.337

>  <ref_mols>  (1052) 
Z4756a

>  <HIPPO Compound ID>  (1052) 
184603

>  <distance_score>  (1052) 
0.369004

>  <rmsd(smina/fragmenstein)>  (1052) 
0.242

>  <ref_pdb>  (1052) 
Z4756a

>  <inspiration_score>  (1052) 
None

$$$$
P127200
     RDKit          3D

 32 36  0  0  0  0  0  0  0  0999 V2000
  -11.9707    2.6527   -4.7494 C   0  0  0  0  0  0  0  0  0  0  0  0
  -10.6948    3.2544   -5.3098 C   0  0  0  0  0  0  0  0  0  0  0  0
   -9.8672    3.8938   -4.1952 C   0  0  0  0  0  0  0  0  0  0  0  0
   -9.9966    2.1157   -6.0485 C   0  0  0  0  0  0  0  0  0  0  0  0
   -8.5583    2.3476   -6.4431 C   0  0  0  0  0  0  0  0  0  0  0  0
   -8.3558    3.0659   -7.6611 N   0  0  0  0  0  0  0  0  0  0  0  0
   -8.3915    4.5052   -7.7737 C   0  0  0  0  0  0  0  0  0  0  0  0
   -8.2768    4.7162   -9.2542 C   0  0  0  0  0  0  0  0  0  0  0  0
   -8.0018    5.8665   -9.9642 C   0  0  0  0  0  0  0  0  0  0  0  0
   -7.9068    5.7687  -11.3561 C   0  0  0  0  0  0  0  0  0  0  0  0
   -8.1162    4.5422  -12.0132 C   0  0  0  0  0  0  0  0  0  0  0  0
   -8.0089    4.4384  -13.3931 N   0  0  0  0  0  0  0  0  0  0  0  0
   -7.5307    5.4631  -14.4399 C   0  0  0  0  0  0  0  0  0  0  0  0
   -7.2238    6.5820  -14.3178 O   0  0  0  0  0  0  0  0  0  0  0  0
   -7.5380    4.8893  -15.8131 C   0  0  0  0  0  0  0  0  0  0  0  0
   -8.6450    4.1615  -16.2988 C   0  0  0  0  0  0  0  0  0  0  0  0
   -8.6712    3.7199  -17.6231 C   0  0  0  0  0  0  0  0  0  0  0  0
   -7.5898    4.0378  -18.4188 C   0  0  0  0  0  0  0  0  0  0  0  0
   -6.5055    4.7910  -17.9686 C   0  0  0  0  0  0  0  0  0  0  0  0
   -6.4613    5.2134  -16.6531 C   0  0  0  0  0  0  0  0  0  0  0  0
   -5.5557    5.0652  -19.1219 C   0  0  0  0  0  0  0  0  0  0  0  0
   -5.6596    6.5348  -19.5795 C   0  0  0  0  0  0  0  0  0  0  0  0
   -4.5468    7.3790  -18.9808 C   0  0  0  0  0  0  0  0  0  0  0  0
   -3.2503    6.9430  -19.3756 O   0  0  0  0  0  0  0  0  0  0  0  0
   -3.1403    5.5463  -19.6558 C   0  0  0  0  0  0  0  0  0  0  0  0
   -4.0947    4.7084  -18.8146 C   0  0  0  0  0  0  0  0  0  0  0  0
   -6.1890    4.1570  -20.2266 C   0  0  0  0  0  0  0  0  0  0  0  0
   -5.7464    3.9216  -21.3424 O   0  0  0  0  0  0  0  0  0  0  0  0
   -7.3978    3.6717  -19.7371 N   0  0  0  0  0  0  0  0  0  0  0  0
   -8.4232    3.3938  -11.2903 C   0  0  0  0  0  0  0  0  0  0  0  0
   -8.4773    3.4979   -9.9149 C   0  0  0  0  0  0  0  0  0  0  0  0
   -8.7141    2.4172   -8.9144 C   0  0  0  0  0  0  0  0  0  0  0  0
  1  2  1  0
  2  3  1  0
  2  4  1  0
  4  5  1  0
  5  6  1  0
  6  7  1  0
  7  8  1  0
  8  9  2  0
  9 10  1  0
 10 11  2  0
 11 12  1  0
 12 13  1  0
 13 14  2  0
 13 15  1  0
 15 16  2  0
 16 17  1  0
 17 18  2  0
 18 19  1  0
 19 20  2  0
 19 21  1  0
 21 22  1  0
 22 23  1  0
 23 24  1  0
 24 25  1  0
 25 26  1  0
 21 27  1  0
 27 28  2  0
 27 29  1  0
 11 30  1  0
 30 31  2  0
 31 32  1  0
 32  6  1  0
 31  8  1  0
 20 15  1  0
 26 21  1  0
 29 18  1  0
M  END
>  <name>  (1053) 
P127200

>  <alias>  (1053) 
None

>  <smina_score_min>  (1053) 
-9.78

>  <exports>  (1053) 
['/opt/xchem-fragalysis-2/maxwin/BulkDock/OUTPUTS/openbind_xx01zvns2b_c2_elabs_1LOUTNY.sdf', '/opt/xchem-fragalysis-2/maxwin/BulkDock/OUTPUTS/openbind_xx01zvns2b_c2_elabs_1LSYIIV.sdf']

>  <tags>  (1053) 
syndirella_placed,openbind_xx01zvns2b_c2_elabs,openbind_xx01zvns2b_c2_elabs_scored_6.2plus,syndirella_product,openbind_xx01zvns2b_c2_elabs_scored,openbind_xx01zvns2b_c1_elabs_filtered,openbind_xx01zvns2b_c2_elabs_scored_top80percent,BulkDock Fragalysis export

>  <subsites>  (1053) 
1 - Z4590/B/203/1

>  <smiles>  (1053) 
CC(C)CCN1Cc2ccc(NC(=O)c3ccc4c(c3)C3(CCOCC3)C(=O)N4)cc2C1

>  <HIPPO Pose ID>  (1053) 
127200

>  <energy_score>  (1053) 
-47.707421

>  <inchikey>  (1053) 
GHZOWFRCUIOQHF-UHFFFAOYSA-N

>  <gnina_score_min>  (1053) 
6.307

>  <gnina_score>  (1053) 
6.378

>  <ref_mols>  (1053) 
Z4756a

>  <HIPPO Compound ID>  (1053) 
142816

>  <distance_score>  (1053) 
0.424496

>  <rmsd(smina/fragmenstein)>  (1053) 
0.379

>  <ref_pdb>  (1053) 
Z4756a

>  <inspiration_score>  (1053) 
None

$$$$
P127203
     RDKit          3D

 32 36  0  0  0  0  0  0  0  0999 V2000
   -9.6522    5.4947   -4.1622 C   0  0  0  0  0  0  0  0  0  0  0  0
   -8.4102    4.6579   -4.4193 C   0  0  0  0  0  0  0  0  0  0  0  0
   -8.7173    3.2580   -4.9459 C   0  0  0  0  0  0  0  0  0  0  0  0
   -9.5089    3.0733   -6.2418 C   0  0  0  0  0  0  0  0  0  0  0  0
   -8.8173    3.4499   -7.4602 N   0  0  0  0  0  0  0  0  0  0  0  0
   -8.8897    2.6015   -8.6561 C   0  0  0  0  0  0  0  0  0  0  0  0
   -8.4831    3.5322   -9.7546 C   0  0  0  0  0  0  0  0  0  0  0  0
   -8.3782    3.3390  -11.1246 C   0  0  0  0  0  0  0  0  0  0  0  0
   -8.0245    4.4409  -11.9193 C   0  0  0  0  0  0  0  0  0  0  0  0
   -7.9433    4.3167  -13.3024 N   0  0  0  0  0  0  0  0  0  0  0  0
   -7.4872    5.3314  -14.3769 C   0  0  0  0  0  0  0  0  0  0  0  0
   -7.1817    6.4546  -14.2766 O   0  0  0  0  0  0  0  0  0  0  0  0
   -7.5135    4.7667  -15.7471 C   0  0  0  0  0  0  0  0  0  0  0  0
   -8.6454    4.0828  -16.2340 C   0  0  0  0  0  0  0  0  0  0  0  0
   -8.7037    3.6880  -17.5717 C   0  0  0  0  0  0  0  0  0  0  0  0
   -7.6292    4.0100  -18.3755 C   0  0  0  0  0  0  0  0  0  0  0  0
   -6.5177    4.7186  -17.9184 C   0  0  0  0  0  0  0  0  0  0  0  0
   -6.4405    5.0934  -16.5920 C   0  0  0  0  0  0  0  0  0  0  0  0
   -5.5918    5.0322  -19.0787 C   0  0  0  0  0  0  0  0  0  0  0  0
   -5.6938    6.5367  -19.3949 C   0  0  0  0  0  0  0  0  0  0  0  0
   -4.5630    6.9472  -20.3207 C   0  0  0  0  0  0  0  0  0  0  0  0
   -3.2864    6.8106  -19.7019 O   0  0  0  0  0  0  0  0  0  0  0  0
   -3.2190    5.8462  -18.6539 C   0  0  0  0  0  0  0  0  0  0  0  0
   -4.1207    4.6375  -18.8810 C   0  0  0  0  0  0  0  0  0  0  0  0
   -6.2700    4.1836  -20.2090 C   0  0  0  0  0  0  0  0  0  0  0  0
   -5.8570    3.9776  -21.3420 O   0  0  0  0  0  0  0  0  0  0  0  0
   -7.4753    3.6984  -19.7117 N   0  0  0  0  0  0  0  0  0  0  0  0
   -7.7757    5.7004  -11.3388 C   0  0  0  0  0  0  0  0  0  0  0  0
   -7.9038    5.8933   -9.9712 C   0  0  0  0  0  0  0  0  0  0  0  0
   -8.2570    4.7957   -9.2195 C   0  0  0  0  0  0  0  0  0  0  0  0
   -8.5555    4.7664   -7.7961 C   0  0  0  0  0  0  0  0  0  0  0  0
   -8.6229    5.7792   -7.1265 O   0  0  0  0  0  0  0  0  0  0  0  0
  1  2  1  0
  2  3  1  0
  3  4  1  0
  4  5  1  0
  5  6  1  0
  6  7  1  0
  7  8  2  0
  8  9  1  0
  9 10  1  0
 10 11  1  0
 11 12  2  0
 11 13  1  0
 13 14  2  0
 14 15  1  0
 15 16  2  0
 16 17  1  0
 17 18  2  0
 17 19  1  0
 19 20  1  0
 20 21  1  0
 21 22  1  0
 22 23  1  0
 23 24  1  0
 19 25  1  0
 25 26  2  0
 25 27  1  0
  9 28  2  0
 28 29  1  0
 29 30  2  0
 30 31  1  0
 31 32  2  0
 31  5  1  0
 30  7  1  0
 18 13  1  0
 24 19  1  0
 27 16  1  0
M  END
>  <name>  (1054) 
P127203

>  <alias>  (1054) 
None

>  <smina_score_min>  (1054) 
-10.165

>  <exports>  (1054) 
['/opt/xchem-fragalysis-2/maxwin/BulkDock/OUTPUTS/openbind_xx01zvns2b_c2_elabs_1LOUTNY.sdf', '/opt/xchem-fragalysis-2/maxwin/BulkDock/OUTPUTS/openbind_xx01zvns2b_c2_elabs_1LSYIIV.sdf']

>  <tags>  (1054) 
syndirella_placed,openbind_xx01zvns2b_c2_elabs,openbind_xx01zvns2b_c2_elabs_scored_6.2plus,syndirella_product,openbind_xx01zvns2b_c2_elabs_scored,openbind_xx01zvns2b_c2_elabs_scored_top80percent,BulkDock Fragalysis export

>  <subsites>  (1054) 
1 - Z4590/B/203/1

>  <smiles>  (1054) 
CCCCN1Cc2cc(NC(=O)c3ccc4c(c3)C3(CCOCC3)C(=O)N4)ccc2C1=O

>  <HIPPO Pose ID>  (1054) 
127203

>  <energy_score>  (1054) 
-28.794319

>  <inchikey>  (1054) 
JCGRKHXYDHMEOS-UHFFFAOYSA-N

>  <gnina_score_min>  (1054) 
6.342

>  <gnina_score>  (1054) 
6.256

>  <ref_mols>  (1054) 
Z4756a

>  <HIPPO Compound ID>  (1054) 
184618

>  <distance_score>  (1054) 
0.464669

>  <rmsd(smina/fragmenstein)>  (1054) 
0.653

>  <ref_pdb>  (1054) 
Z4756a

>  <inspiration_score>  (1054) 
None

$$$$
P127208
     RDKit          3D

 32 36  0  0  0  0  0  0  0  0999 V2000
   -8.0492    4.1331   -2.8531 O   0  0  0  0  0  0  0  0  0  0  0  0
   -8.6115    3.7753   -3.8777 C   0  0  0  0  0  0  0  0  0  0  0  0
   -7.9245    3.2293   -5.0910 C   0  0  0  0  0  0  0  0  0  0  0  0
   -9.0585    2.8785   -6.0520 C   0  0  2  0  0  0  0  0  0  0  0  0
   -8.8613    3.4058   -7.3934 N   0  0  0  0  0  0  0  0  0  0  0  0
   -8.9459    2.5842   -8.5987 C   0  0  0  0  0  0  0  0  0  0  0  0
   -8.5235    3.5482   -9.6665 C   0  0  0  0  0  0  0  0  0  0  0  0
   -8.3524    3.3703  -11.0319 C   0  0  0  0  0  0  0  0  0  0  0  0
   -7.8839    4.4580  -11.7888 C   0  0  0  0  0  0  0  0  0  0  0  0
   -7.6786    4.3058  -13.1571 N   0  0  0  0  0  0  0  0  0  0  0  0
   -7.0028    5.2489  -14.1843 C   0  0  0  0  0  0  0  0  0  0  0  0
   -6.4458    6.2640  -14.0281 O   0  0  0  0  0  0  0  0  0  0  0  0
   -7.1877    4.7708  -15.5738 C   0  0  0  0  0  0  0  0  0  0  0  0
   -8.4843    4.4429  -16.0054 C   0  0  0  0  0  0  0  0  0  0  0  0
   -8.7174    4.1507  -17.3474 C   0  0  0  0  0  0  0  0  0  0  0  0
  -10.4765    4.0702  -17.9545 Br  0  0  0  0  0  0  0  0  0  0  0  0
   -7.6571    4.1231  -18.2246 C   0  0  0  0  0  0  0  0  0  0  0  0
   -6.3886    4.4814  -17.7880 C   0  0  0  0  0  0  0  0  0  0  0  0
   -6.1195    4.8283  -16.4771 C   0  0  0  0  0  0  0  0  0  0  0  0
   -5.5103    4.4388  -18.9588 C   0  0  0  0  0  0  0  0  0  0  0  0
   -4.3317    4.7103  -18.9955 O   0  0  0  0  0  0  0  0  0  0  0  0
   -6.4135    3.9603  -20.1327 C   0  0  0  0  0  0  0  0  0  0  0  0
   -6.0581    3.7560  -21.2736 O   0  0  0  0  0  0  0  0  0  0  0  0
   -7.6658    3.8047  -19.5813 N   0  0  0  0  0  0  0  0  0  0  0  0
   -7.6313    5.7027  -11.1830 C   0  0  0  0  0  0  0  0  0  0  0  0
   -7.8376    5.8863   -9.8191 C   0  0  0  0  0  0  0  0  0  0  0  0
   -8.2730    4.7959   -9.0972 C   0  0  0  0  0  0  0  0  0  0  0  0
   -8.5139    4.7123   -7.6596 C   0  0  0  0  0  0  0  0  0  0  0  0
   -8.3974    5.6362   -6.8762 O   0  0  0  0  0  0  0  0  0  0  0  0
  -10.2853    3.4492   -5.3553 C   0  0  0  0  0  0  0  0  0  0  0  0
  -11.4081    3.5714   -5.8138 O   0  0  0  0  0  0  0  0  0  0  0  0
   -9.9422    3.8388   -4.1023 N   0  0  0  0  0  0  0  0  0  0  0  0
  1  2  2  0
  2  3  1  0
  3  4  1  0
  4  5  1  6
  5  6  1  0
  6  7  1  0
  7  8  2  0
  8  9  1  0
  9 10  1  0
 10 11  1  0
 11 12  2  0
 11 13  1  0
 13 14  2  0
 14 15  1  0
 15 16  1  0
 15 17  2  0
 17 18  1  0
 18 19  2  0
 18 20  1  0
 20 21  2  0
 20 22  1  0
 22 23  2  0
 22 24  1  0
  9 25  2  0
 25 26  1  0
 26 27  2  0
 27 28  1  0
 28 29  2  0
  4 30  1  0
 30 31  2  0
 30 32  1  0
 32  2  1  0
 28  5  1  0
 27  7  1  0
 19 13  1  0
 24 17  1  0
M  END
>  <name>  (1055) 
P127208

>  <alias>  (1055) 
None

>  <smina_score_min>  (1055) 
-9.815

>  <exports>  (1055) 
['/opt/xchem-fragalysis-2/maxwin/BulkDock/OUTPUTS/openbind_xx01zvns2b_c2_elabs_1LOUTNY.sdf', '/opt/xchem-fragalysis-2/maxwin/BulkDock/OUTPUTS/openbind_xx01zvns2b_c2_elabs_1LSYIIV.sdf']

>  <tags>  (1055) 
syndirella_placed,openbind_xx01zvns2b_c2_elabs,openbind_xx01zvns2b_c2_elabs_scored_6.2plus,syndirella_product,openbind_xx01zvns2b_c2_elabs_scored,openbind_xx01zvns2b_c2_elabs_scored_top80percent,BulkDock Fragalysis export

>  <subsites>  (1055) 
1 - Z4590/B/203/1

>  <smiles>  (1055) 
O=C1C[C@H](N2Cc3cc(NC(=O)c4cc(Br)c5c(c4)C(=O)C(=O)N5)ccc3C2=O)C(=O)N1

>  <HIPPO Pose ID>  (1055) 
127208

>  <energy_score>  (1055) 
-41.991108

>  <inchikey>  (1055) 
YEHDJZQDQUEORN-AWEZNQCLSA-N

>  <gnina_score_min>  (1055) 
6.205

>  <gnina_score>  (1055) 
6.164

>  <ref_mols>  (1055) 
Z4756a

>  <HIPPO Compound ID>  (1055) 
184601

>  <distance_score>  (1055) 
0.52888

>  <rmsd(smina/fragmenstein)>  (1055) 
0.347

>  <ref_pdb>  (1055) 
Z4756a

>  <inspiration_score>  (1055) 
None

$$$$
P127211
     RDKit          3D

 32 36  0  0  0  0  0  0  0  0999 V2000
   -7.8109    3.2956  -20.1292 C   0  0  0  0  0  0  0  0  0  0  0  0
   -6.9419    4.0587  -19.3258 N   0  0  0  0  0  0  0  0  0  0  0  0
   -5.6847    4.4533  -19.7575 C   0  0  0  0  0  0  0  0  0  0  0  0
   -5.2065    4.2993  -20.8724 O   0  0  0  0  0  0  0  0  0  0  0  0
   -4.9983    5.0885  -18.5550 C   0  0  0  0  0  0  0  0  0  0  0  0
   -6.0406    4.9623  -17.4825 C   0  0  0  0  0  0  0  0  0  0  0  0
   -5.9749    5.3371  -16.1597 C   0  0  0  0  0  0  0  0  0  0  0  0
   -7.1088    5.1289  -15.3641 C   0  0  0  0  0  0  0  0  0  0  0  0
   -7.0762    5.6235  -13.9775 C   0  0  0  0  0  0  0  0  0  0  0  0
   -6.6357    6.6875  -13.7851 O   0  0  0  0  0  0  0  0  0  0  0  0
   -7.6784    4.5957  -12.9934 N   0  0  0  0  0  0  0  0  0  0  0  0
   -7.7739    4.6221  -11.6130 C   0  0  0  0  0  0  0  0  0  0  0  0
   -7.2288    5.7146  -10.9143 C   0  0  0  0  0  0  0  0  0  0  0  0
   -7.2036    5.7259   -9.5293 C   0  0  0  0  0  0  0  0  0  0  0  0
   -7.7559    4.6391   -8.8939 C   0  0  0  0  0  0  0  0  0  0  0  0
   -8.3625    3.5768   -9.5586 C   0  0  0  0  0  0  0  0  0  0  0  0
   -8.3656    3.5442  -10.9404 C   0  0  0  0  0  0  0  0  0  0  0  0
   -8.9059    2.6112   -8.5567 C   0  0  0  0  0  0  0  0  0  0  0  0
   -8.6803    3.3212   -7.2883 N   0  0  0  0  0  0  0  0  0  0  0  0
   -8.8551    2.6687   -5.9984 C   0  0  1  0  0  0  0  0  0  0  0  0
   -8.9917    3.6389   -4.8220 C   0  0  0  0  0  0  0  0  0  0  0  0
  -10.4059    3.4891   -4.3811 C   0  0  0  0  0  0  0  0  0  0  0  0
  -10.9128    4.1375   -3.4795 O   0  0  0  0  0  0  0  0  0  0  0  0
  -11.0085    2.5123   -5.0930 N   0  0  0  0  0  0  0  0  0  0  0  0
  -10.1609    1.9005   -5.9527 C   0  0  0  0  0  0  0  0  0  0  0  0
  -10.4449    0.9297   -6.6343 O   0  0  0  0  0  0  0  0  0  0  0  0
   -7.8122    4.3833   -7.4639 C   0  0  0  0  0  0  0  0  0  0  0  0
   -7.1832    5.0088   -6.6301 O   0  0  0  0  0  0  0  0  0  0  0  0
   -8.2933    4.5918  -15.8882 C   0  0  0  0  0  0  0  0  0  0  0  0
   -8.3450    4.2284  -17.2273 C   0  0  0  0  0  0  0  0  0  0  0  0
   -9.8731    3.7796  -17.8508 Cl  0  0  0  0  0  0  0  0  0  0  0  0
   -7.1990    4.3869  -17.9996 C   0  0  0  0  0  0  0  0  0  0  0  0
  1  2  1  0
  2  3  1  0
  3  4  2  0
  3  5  1  0
  5  6  1  0
  6  7  2  0
  7  8  1  0
  8  9  1  0
  9 10  2  0
  9 11  1  0
 11 12  1  0
 12 13  2  0
 13 14  1  0
 14 15  2  0
 15 16  1  0
 16 17  2  0
 16 18  1  0
 18 19  1  0
 20 19  1  6
 20 21  1  0
 21 22  1  0
 22 23  2  0
 22 24  1  0
 24 25  1  0
 25 26  2  0
 19 27  1  0
 27 28  2  0
  8 29  2  0
 29 30  1  0
 30 31  1  0
 30 32  2  0
 32  2  1  0
 32  6  1  0
 17 12  1  0
 25 20  1  0
 27 15  1  0
M  END
>  <name>  (1056) 
P127211

>  <alias>  (1056) 
None

>  <smina_score_min>  (1056) 
-9.195

>  <exports>  (1056) 
['/opt/xchem-fragalysis-2/maxwin/BulkDock/OUTPUTS/openbind_xx01zvns2b_c2_elabs_1LOUTNY.sdf', '/opt/xchem-fragalysis-2/maxwin/BulkDock/OUTPUTS/openbind_xx01zvns2b_c2_elabs_1LSYIIV.sdf']

>  <tags>  (1056) 
syndirella_placed,openbind_xx01zvns2b_c2_elabs,openbind_xx01zvns2b_c2_elabs_scored_6.2plus,syndirella_product,openbind_xx01zvns2b_c2_elabs_scored,openbind_xx01zvns2b_c2_elabs_scored_top80percent,BulkDock Fragalysis export

>  <subsites>  (1056) 
1 - Z4590/B/203/1

>  <smiles>  (1056) 
CN1C(=O)Cc2cc(C(=O)Nc3ccc4c(c3)CN([C@H]3CC(=O)NC3=O)C4=O)cc(Cl)c21

>  <HIPPO Pose ID>  (1056) 
127211

>  <energy_score>  (1056) 
-33.982576

>  <inchikey>  (1056) 
ZTWAJGCADJPXHM-INIZCTEOSA-N

>  <gnina_score_min>  (1056) 
6.259

>  <gnina_score>  (1056) 
6.275

>  <ref_mols>  (1056) 
Z4756a

>  <HIPPO Compound ID>  (1056) 
184627

>  <distance_score>  (1056) 
0.870962

>  <rmsd(smina/fragmenstein)>  (1056) 
0.516

>  <ref_pdb>  (1056) 
Z4756a

>  <inspiration_score>  (1056) 
None

$$$$
P127258
     RDKit          3D

 33 37  0  0  0  0  0  0  0  0999 V2000
   -9.3755    7.6392   -3.2881 C   0  0  0  0  0  0  0  0  0  0  0  0
   -9.4995    6.6306   -4.4132 C   0  0  0  0  0  0  0  0  0  0  0  0
  -10.0657    5.4337   -3.8818 O   0  0  0  0  0  0  0  0  0  0  0  0
  -10.2515    4.4222   -4.8818 C   0  0  0  0  0  0  0  0  0  0  0  0
   -8.9811    3.5935   -5.0237 C   0  0  0  0  0  0  0  0  0  0  0  0
   -8.9983    2.6455   -6.2322 C   0  0  0  0  0  0  0  0  0  0  0  0
   -9.0951    3.3599   -7.4985 N   0  0  0  0  0  0  0  0  0  0  0  0
   -8.1531    4.4709   -7.6815 C   0  0  0  0  0  0  0  0  0  0  0  0
   -8.0813    4.6345   -9.1596 C   0  0  0  0  0  0  0  0  0  0  0  0
   -7.6461    5.7203   -9.8885 C   0  0  0  0  0  0  0  0  0  0  0  0
   -7.6580    5.6144  -11.2760 C   0  0  0  0  0  0  0  0  0  0  0  0
   -8.0798    4.4321  -11.9099 C   0  0  0  0  0  0  0  0  0  0  0  0
   -8.0460    4.3528  -13.3005 N   0  0  0  0  0  0  0  0  0  0  0  0
   -7.4813    5.3406  -14.3505 C   0  0  0  0  0  0  0  0  0  0  0  0
   -7.0261    6.4091  -14.2176 O   0  0  0  0  0  0  0  0  0  0  0  0
   -7.5365    4.7983  -15.7356 C   0  0  0  0  0  0  0  0  0  0  0  0
   -8.6649    4.1069  -16.2198 C   0  0  0  0  0  0  0  0  0  0  0  0
   -8.7229    3.7013  -17.5556 C   0  0  0  0  0  0  0  0  0  0  0  0
   -7.6510    4.0190  -18.3644 C   0  0  0  0  0  0  0  0  0  0  0  0
   -6.5437    4.7374  -17.9155 C   0  0  0  0  0  0  0  0  0  0  0  0
   -6.4680    5.1220  -16.5909 C   0  0  0  0  0  0  0  0  0  0  0  0
   -5.6223    5.0479  -19.0819 C   0  0  0  0  0  0  0  0  0  0  0  0
   -4.1458    4.7222  -18.8478 C   0  0  0  0  0  0  0  0  0  0  0  0
   -3.2545    5.2441  -19.9722 C   0  0  0  0  0  0  0  0  0  0  0  0
   -3.4591    6.6427  -20.1754 O   0  0  0  0  0  0  0  0  0  0  0  0
   -4.8028    6.9333  -20.5489 C   0  0  0  0  0  0  0  0  0  0  0  0
   -5.7429    6.5436  -19.4201 C   0  0  0  0  0  0  0  0  0  0  0  0
   -6.2830    4.1629  -20.1936 C   0  0  0  0  0  0  0  0  0  0  0  0
   -5.8580    3.9257  -21.3158 O   0  0  0  0  0  0  0  0  0  0  0  0
   -7.4926    3.6887  -19.6961 N   0  0  0  0  0  0  0  0  0  0  0  0
   -8.5216    3.3393  -11.1544 C   0  0  0  0  0  0  0  0  0  0  0  0
   -8.5307    3.4642   -9.7737 C   0  0  0  0  0  0  0  0  0  0  0  0
   -8.9704    2.5013   -8.7047 C   0  0  0  0  0  0  0  0  0  0  0  0
  1  2  1  0
  2  3  1  0
  3  4  1  0
  4  5  1  0
  5  6  1  0
  6  7  1  0
  7  8  1  0
  8  9  1  0
  9 10  2  0
 10 11  1  0
 11 12  2  0
 12 13  1  0
 13 14  1  0
 14 15  2  0
 14 16  1  0
 16 17  2  0
 17 18  1  0
 18 19  2  0
 19 20  1  0
 20 21  2  0
 20 22  1  0
 22 23  1  0
 23 24  1  0
 24 25  1  0
 25 26  1  0
 26 27  1  0
 22 28  1  0
 28 29  2  0
 28 30  1  0
 12 31  1  0
 31 32  2  0
 32 33  1  0
 33  7  1  0
 32  9  1  0
 21 16  1  0
 27 22  1  0
 30 19  1  0
M  END
>  <name>  (1057) 
P127258

>  <alias>  (1057) 
None

>  <smina_score_min>  (1057) 
-9.319

>  <exports>  (1057) 
['/opt/xchem-fragalysis-2/maxwin/BulkDock/OUTPUTS/openbind_xx01zvns2b_c2_elabs_1LOUTNY.sdf', '/opt/xchem-fragalysis-2/maxwin/BulkDock/OUTPUTS/openbind_xx01zvns2b_c2_elabs_1LSYIIV.sdf']

>  <tags>  (1057) 
syndirella_placed,openbind_xx01zvns2b_c2_elabs,openbind_xx01zvns2b_c2_elabs_scored_6.2plus,syndirella_product,openbind_xx01zvns2b_c2_elabs_scored,openbind_xx01zvns2b_c1_elabs_filtered,openbind_xx01zvns2b_c2_elabs_scored_top80percent,BulkDock Fragalysis export

>  <subsites>  (1057) 
1 - Z4590/B/203/1

>  <smiles>  (1057) 
CCOCCCN1Cc2ccc(NC(=O)c3ccc4c(c3)C3(CCOCC3)C(=O)N4)cc2C1

>  <HIPPO Pose ID>  (1057) 
127258

>  <energy_score>  (1057) 
-52.282527

>  <inchikey>  (1057) 
IUXQLRHBJVLCPP-UHFFFAOYSA-N

>  <gnina_score_min>  (1057) 
6.439

>  <gnina_score>  (1057) 
6.306

>  <ref_mols>  (1057) 
Z4756a

>  <HIPPO Compound ID>  (1057) 
142818

>  <distance_score>  (1057) 
0.421214

>  <rmsd(smina/fragmenstein)>  (1057) 
0.475

>  <ref_pdb>  (1057) 
Z4756a

>  <inspiration_score>  (1057) 
None

$$$$
P127259
     RDKit          3D

 33 38  0  0  0  0  0  0  0  0999 V2000
   -7.0060    6.4711  -14.4233 O   0  0  0  0  0  0  0  0  0  0  0  0
   -7.4574    5.3977  -14.5226 C   0  0  0  0  0  0  0  0  0  0  0  0
   -7.9955    4.4320  -13.4401 N   0  0  0  0  0  0  0  0  0  0  0  0
   -8.0026    4.5430  -12.0539 C   0  0  0  0  0  0  0  0  0  0  0  0
   -7.5534    5.7501  -11.4910 C   0  0  0  0  0  0  0  0  0  0  0  0
   -7.4593    5.9085  -10.1200 C   0  0  0  0  0  0  0  0  0  0  0  0
   -7.8391    4.8467   -9.3292 C   0  0  0  0  0  0  0  0  0  0  0  0
   -8.3362    3.6571   -9.8599 C   0  0  0  0  0  0  0  0  0  0  0  0
   -8.4143    3.4831  -11.2367 C   0  0  0  0  0  0  0  0  0  0  0  0
   -8.7666    2.7458   -8.7410 C   0  0  0  0  0  0  0  0  0  0  0  0
   -8.4174    3.5162   -7.5142 N   0  0  0  0  0  0  0  0  0  0  0  0
   -9.1474    3.4805   -6.3373 C   0  0  0  0  0  0  0  0  0  0  0  0
  -10.2615    2.6620   -6.1604 C   0  0  0  0  0  0  0  0  0  0  0  0
  -11.0959    2.8198   -5.0553 C   0  0  0  0  0  0  0  0  0  0  0  0
  -10.7915    3.7666   -4.0810 C   0  0  0  0  0  0  0  0  0  0  0  0
   -9.6218    4.4971   -4.1562 C   0  0  0  0  0  0  0  0  0  0  0  0
   -8.8047    4.3365   -5.2671 C   0  0  0  0  0  0  0  0  0  0  0  0
   -7.8092    4.8067   -7.8495 C   0  0  0  0  0  0  0  0  0  0  0  0
   -7.5117    4.8291  -15.8929 C   0  0  0  0  0  0  0  0  0  0  0  0
   -8.6232    4.1037  -16.3604 C   0  0  0  0  0  0  0  0  0  0  0  0
   -8.6660    3.6790  -17.6896 C   0  0  0  0  0  0  0  0  0  0  0  0
   -7.5958    4.0072  -18.5012 C   0  0  0  0  0  0  0  0  0  0  0  0
   -6.5046    4.7605  -18.0700 C   0  0  0  0  0  0  0  0  0  0  0  0
   -6.4505    5.1695  -16.7544 C   0  0  0  0  0  0  0  0  0  0  0  0
   -5.5683    5.0370  -19.2338 C   0  0  0  0  0  0  0  0  0  0  0  0
   -4.1098    4.6356  -19.0133 C   0  0  0  0  0  0  0  0  0  0  0  0
   -3.3342    5.5868  -18.1059 C   0  0  0  0  0  0  0  0  0  0  0  0
   -3.8761    6.9055  -18.0749 O   0  0  0  0  0  0  0  0  0  0  0  0
   -4.3677    7.3028  -19.3439 C   0  0  0  0  0  0  0  0  0  0  0  0
   -5.6252    6.5134  -19.6887 C   0  0  0  0  0  0  0  0  0  0  0  0
   -6.2283    4.1406  -20.3299 C   0  0  0  0  0  0  0  0  0  0  0  0
   -5.8057    3.9157  -21.4559 O   0  0  0  0  0  0  0  0  0  0  0  0
   -7.4247    3.6457  -19.8226 N   0  0  0  0  0  0  0  0  0  0  0  0
  1  2  2  0
  2  3  1  0
  3  4  1  0
  4  5  2  0
  5  6  1  0
  6  7  2  0
  7  8  1  0
  8  9  2  0
  8 10  1  0
 10 11  1  0
 11 12  1  0
 12 13  2  0
 13 14  1  0
 14 15  2  0
 15 16  1  0
 16 17  2  0
 11 18  1  0
  2 19  1  0
 19 20  2  0
 20 21  1  0
 21 22  2  0
 22 23  1  0
 23 24  2  0
 23 25  1  0
 25 26  1  0
 26 27  1  0
 27 28  1  0
 28 29  1  0
 29 30  1  0
 25 31  1  0
 31 32  2  0
 31 33  1  0
  9  4  1  0
 17 12  1  0
 24 19  1  0
 30 25  1  0
 18  7  1  0
 33 22  1  0
M  END
>  <name>  (1058) 
P127259

>  <alias>  (1058) 
None

>  <smina_score_min>  (1058) 
-11.412

>  <exports>  (1058) 
['/opt/xchem-fragalysis-2/maxwin/BulkDock/OUTPUTS/openbind_xx01zvns2b_c2_elabs_1LOUTNY.sdf', '/opt/xchem-fragalysis-2/maxwin/BulkDock/OUTPUTS/openbind_xx01zvns2b_c2_elabs_1LSYIIV.sdf']

>  <tags>  (1058) 
syndirella_placed,openbind_xx01zvns2b_c2_elabs,openbind_xx01zvns2b_c2_elabs_scored_6.2plus,syndirella_product,openbind_xx01zvns2b_c2_elabs_scored,openbind_xx01zvns2b_c1_elabs_filtered,openbind_xx01zvns2b_c2_elabs_scored_top80percent,BulkDock Fragalysis export

>  <subsites>  (1058) 
1 - Z4590/B/203/1

>  <smiles>  (1058) 
O=C(Nc1ccc2c(c1)CN(c1ccccc1)C2)c1ccc2c(c1)C1(CCOCC1)C(=O)N2

>  <HIPPO Pose ID>  (1058) 
127259

>  <energy_score>  (1058) 
-32.997493

>  <inchikey>  (1058) 
BVVQKFQQPXZFHT-UHFFFAOYSA-N

>  <gnina_score_min>  (1058) 
6.391

>  <gnina_score>  (1058) 
6.367

>  <ref_mols>  (1058) 
Z4756a

>  <HIPPO Compound ID>  (1058) 
141606

>  <distance_score>  (1058) 
0.588319

>  <rmsd(smina/fragmenstein)>  (1058) 
0.597

>  <ref_pdb>  (1058) 
Z4756a

>  <inspiration_score>  (1058) 
None

$$$$
P127261
     RDKit          3D

 33 38  0  0  0  0  0  0  0  0999 V2000
   -7.0402    6.3558  -14.1270 O   0  0  0  0  0  0  0  0  0  0  0  0
   -7.5019    5.2901  -14.2650 C   0  0  0  0  0  0  0  0  0  0  0  0
   -8.0376    4.2833  -13.2144 N   0  0  0  0  0  0  0  0  0  0  0  0
   -8.0289    4.3381  -11.8213 C   0  0  0  0  0  0  0  0  0  0  0  0
   -7.3952    5.4229  -11.1760 C   0  0  0  0  0  0  0  0  0  0  0  0
   -7.2923    5.4823   -9.7854 C   0  0  0  0  0  0  0  0  0  0  0  0
   -7.8618    4.4521   -9.0729 C   0  0  0  0  0  0  0  0  0  0  0  0
   -8.5336    3.4152   -9.6899 C   0  0  0  0  0  0  0  0  0  0  0  0
   -8.6139    3.3130  -11.0698 C   0  0  0  0  0  0  0  0  0  0  0  0
   -9.0975    2.5851   -8.6244 C   0  0  0  0  0  0  0  0  0  0  0  0
   -9.7720    1.5932   -8.8161 O   0  0  0  0  0  0  0  0  0  0  0  0
   -8.7519    3.1763   -7.4364 N   0  0  0  0  0  0  0  0  0  0  0  0
   -9.0503    2.5792   -6.1521 C   0  0  0  0  0  0  0  0  0  0  0  0
   -9.2307    3.6150   -5.0759 C   0  0  0  0  0  0  0  0  0  0  0  0
  -10.5194    3.7197   -4.3017 C   0  0  0  0  0  0  0  0  0  0  0  0
  -10.1461    4.8048   -5.2612 C   0  0  0  0  0  0  0  0  0  0  0  0
   -7.8953    4.2212   -7.6338 C   0  0  0  0  0  0  0  0  0  0  0  0
   -7.2361    4.8651   -6.8363 O   0  0  0  0  0  0  0  0  0  0  0  0
   -7.5745    4.7733  -15.6611 C   0  0  0  0  0  0  0  0  0  0  0  0
   -8.7079    4.1031  -16.1597 C   0  0  0  0  0  0  0  0  0  0  0  0
   -8.7667    3.7162  -17.5024 C   0  0  0  0  0  0  0  0  0  0  0  0
   -7.6899    4.0305  -18.3056 C   0  0  0  0  0  0  0  0  0  0  0  0
   -6.5769    4.7300  -17.8434 C   0  0  0  0  0  0  0  0  0  0  0  0
   -6.5002    5.0948  -16.5124 C   0  0  0  0  0  0  0  0  0  0  0  0
   -5.6426    5.0346  -19.0003 C   0  0  0  0  0  0  0  0  0  0  0  0
   -5.7443    6.5360  -19.3300 C   0  0  0  0  0  0  0  0  0  0  0  0
   -4.6066    6.9401  -20.2501 C   0  0  0  0  0  0  0  0  0  0  0  0
   -3.3359    6.8141  -19.6177 O   0  0  0  0  0  0  0  0  0  0  0  0
   -3.2740    5.8551  -18.5645 C   0  0  0  0  0  0  0  0  0  0  0  0
   -4.1730    4.6437  -18.7888 C   0  0  0  0  0  0  0  0  0  0  0  0
   -6.3160    4.1822  -20.1316 C   0  0  0  0  0  0  0  0  0  0  0  0
   -5.8944    3.9638  -21.2592 O   0  0  0  0  0  0  0  0  0  0  0  0
   -7.5320    3.7152  -19.6412 N   0  0  0  0  0  0  0  0  0  0  0  0
  1  2  2  0
  2  3  1  0
  3  4  1  0
  4  5  2  0
  5  6  1  0
  6  7  2  0
  7  8  1  0
  8  9  2  0
  8 10  1  0
 10 11  2  0
 10 12  1  0
 12 13  1  0
 13 14  1  0
 14 15  1  0
 15 16  1  0
 12 17  1  0
 17 18  2  0
  2 19  1  0
 19 20  2  0
 20 21  1  0
 21 22  2  0
 22 23  1  0
 23 24  2  0
 23 25  1  0
 25 26  1  0
 26 27  1  0
 27 28  1  0
 28 29  1  0
 29 30  1  0
 25 31  1  0
 31 32  2  0
 31 33  1  0
  9  4  1  0
 16 14  1  0
 24 19  1  0
 30 25  1  0
 17  7  1  0
 33 22  1  0
M  END
>  <name>  (1059) 
P127261

>  <alias>  (1059) 
None

>  <smina_score_min>  (1059) 
-10.743

>  <exports>  (1059) 
['/opt/xchem-fragalysis-2/maxwin/BulkDock/OUTPUTS/openbind_xx01zvns2b_c2_elabs_1LOUTNY.sdf', '/opt/xchem-fragalysis-2/maxwin/BulkDock/OUTPUTS/openbind_xx01zvns2b_c2_elabs_1LSYIIV.sdf']

>  <tags>  (1059) 
syndirella_placed,openbind_xx01zvns2b_c2_elabs,openbind_xx01zvns2b_c2_elabs_scored_6.2plus,syndirella_product,openbind_xx01zvns2b_c2_elabs_scored,openbind_xx01zvns2b_c2_elabs_scored_top80percent,BulkDock Fragalysis export

>  <subsites>  (1059) 
1 - Z4590/B/203/1

>  <smiles>  (1059) 
O=C(Nc1ccc2c(c1)C(=O)N(CC1CC1)C2=O)c1ccc2c(c1)C1(CCOCC1)C(=O)N2

>  <HIPPO Pose ID>  (1059) 
127261

>  <energy_score>  (1059) 
-34.976188

>  <inchikey>  (1059) 
ZJQJWNVABJCSJR-UHFFFAOYSA-N

>  <gnina_score_min>  (1059) 
6.237

>  <gnina_score>  (1059) 
6.292

>  <ref_mols>  (1059) 
Z4756a

>  <HIPPO Compound ID>  (1059) 
189305

>  <distance_score>  (1059) 
0.446704

>  <rmsd(smina/fragmenstein)>  (1059) 
0.776

>  <ref_pdb>  (1059) 
Z4756a

>  <inspiration_score>  (1059) 
None

$$$$
P127262
     RDKit          3D

 33 37  0  0  0  0  0  0  0  0999 V2000
  -10.5870    4.2513   -2.8456 O   0  0  0  0  0  0  0  0  0  0  0  0
  -10.0350    3.6359   -3.7556 C   0  0  0  0  0  0  0  0  0  0  0  0
  -10.8107    2.8750   -4.8377 C   0  0  0  0  0  0  0  0  0  0  0  0
   -9.9551    2.4519   -6.0277 C   0  0  0  0  0  0  0  0  0  0  0  0
   -8.9981    3.5957   -6.2717 C   0  0  2  0  0  0  0  0  0  0  0  0
   -8.3483    3.6928   -7.5441 N   0  0  0  0  0  0  0  0  0  0  0  0
   -8.6455    2.8791   -8.7246 C   0  0  0  0  0  0  0  0  0  0  0  0
   -8.1437    3.7500   -9.8353 C   0  0  0  0  0  0  0  0  0  0  0  0
   -8.0816    3.5423  -11.2000 C   0  0  0  0  0  0  0  0  0  0  0  0
   -7.5656    4.5836  -11.9883 C   0  0  0  0  0  0  0  0  0  0  0  0
   -7.4284    4.4125  -13.3541 N   0  0  0  0  0  0  0  0  0  0  0  0
   -6.7880    5.3280  -14.4203 C   0  0  0  0  0  0  0  0  0  0  0  0
   -6.2077    6.3337  -14.3040 O   0  0  0  0  0  0  0  0  0  0  0  0
   -7.0424    4.8267  -15.7769 C   0  0  0  0  0  0  0  0  0  0  0  0
   -8.3570    4.4851  -16.1386 C   0  0  0  0  0  0  0  0  0  0  0  0
   -8.6423    4.1530  -17.4576 C   0  0  0  0  0  0  0  0  0  0  0  0
  -10.4281    4.0491  -17.9727 Br  0  0  0  0  0  0  0  0  0  0  0  0
   -7.6136    4.1055  -18.3704 C   0  0  0  0  0  0  0  0  0  0  0  0
   -6.3311    4.4844  -17.9911 C   0  0  0  0  0  0  0  0  0  0  0  0
   -6.0077    4.8637  -16.7099 C   0  0  0  0  0  0  0  0  0  0  0  0
   -5.4912    4.4251  -19.1813 C   0  0  0  0  0  0  0  0  0  0  0  0
   -4.3167    4.7038  -19.2618 O   0  0  0  0  0  0  0  0  0  0  0  0
   -6.4244    3.9142  -20.3049 C   0  0  0  0  0  0  0  0  0  0  0  0
   -6.0956    3.7060  -21.4518 O   0  0  0  0  0  0  0  0  0  0  0  0
   -7.6584    3.7478  -19.7150 N   0  0  0  0  0  0  0  0  0  0  0  0
   -7.1795    5.8150  -11.4275 C   0  0  0  0  0  0  0  0  0  0  0  0
   -7.2611    6.0249  -10.0653 C   0  0  0  0  0  0  0  0  0  0  0  0
   -7.7204    4.9714   -9.3136 C   0  0  0  0  0  0  0  0  0  0  0  0
   -7.8875    4.9550   -7.8788 C   0  0  0  0  0  0  0  0  0  0  0  0
   -7.7287    5.9248   -7.1592 O   0  0  0  0  0  0  0  0  0  0  0  0
   -8.0191    3.6460   -5.0761 C   0  0  0  0  0  0  0  0  0  0  0  0
   -6.7922    3.7379   -5.1214 O   0  0  0  0  0  0  0  0  0  0  0  0
   -8.6745    3.6516   -3.8675 N   0  0  0  0  0  0  0  0  0  0  0  0
  1  2  2  0
  2  3  1  0
  3  4  1  0
  4  5  1  0
  5  6  1  6
  6  7  1  0
  7  8  1  0
  8  9  2  0
  9 10  1  0
 10 11  1  0
 11 12  1  0
 12 13  2  0
 12 14  1  0
 14 15  2  0
 15 16  1  0
 16 17  1  0
 16 18  2  0
 18 19  1  0
 19 20  2  0
 19 21  1  0
 21 22  2  0
 21 23  1  0
 23 24  2  0
 23 25  1  0
 10 26  2  0
 26 27  1  0
 27 28  2  0
 28 29  1  0
 29 30  2  0
  5 31  1  0
 31 32  2  0
 31 33  1  0
 33  2  1  0
 29  6  1  0
 28  8  1  0
 20 14  1  0
 25 18  1  0
M  END
>  <name>  (1060) 
P127262

>  <alias>  (1060) 
None

>  <smina_score_min>  (1060) 
-10.457

>  <exports>  (1060) 
['/opt/xchem-fragalysis-2/maxwin/BulkDock/OUTPUTS/openbind_xx01zvns2b_c2_elabs_1LOUTNY.sdf', '/opt/xchem-fragalysis-2/maxwin/BulkDock/OUTPUTS/openbind_xx01zvns2b_c2_elabs_1LSYIIV.sdf']

>  <tags>  (1060) 
syndirella_placed,openbind_xx01zvns2b_c2_elabs,openbind_xx01zvns2b_c2_elabs_scored_6.2plus,syndirella_product,openbind_xx01zvns2b_c2_elabs_scored,openbind_xx01zvns2b_c2_elabs_scored_top80percent,BulkDock Fragalysis export

>  <subsites>  (1060) 
1 - Z4590/B/203/1

>  <smiles>  (1060) 
O=C1CC[C@H](N2Cc3cc(NC(=O)c4cc(Br)c5c(c4)C(=O)C(=O)N5)ccc3C2=O)C(=O)N1

>  <HIPPO Pose ID>  (1060) 
127262

>  <energy_score>  (1060) 
-9.506113

>  <inchikey>  (1060) 
LGGFEDSSDCQDMP-HNNXBMFYSA-N

>  <gnina_score_min>  (1060) 
6.322

>  <gnina_score>  (1060) 
6.187

>  <ref_mols>  (1060) 
Z4756a

>  <HIPPO Compound ID>  (1060) 
189306

>  <distance_score>  (1060) 
0.779175

>  <rmsd(smina/fragmenstein)>  (1060) 
0.454

>  <ref_pdb>  (1060) 
Z4756a

>  <inspiration_score>  (1060) 
None

$$$$
P127269
     RDKit          3D

 33 37  0  0  0  0  0  0  0  0999 V2000
   -7.7571    3.2687  -20.1629 C   0  0  0  0  0  0  0  0  0  0  0  0
   -6.8778    4.0395  -19.3781 N   0  0  0  0  0  0  0  0  0  0  0  0
   -5.6365    4.4511  -19.8369 C   0  0  0  0  0  0  0  0  0  0  0  0
   -5.1766    4.2919  -20.9587 O   0  0  0  0  0  0  0  0  0  0  0  0
   -4.9394    5.1139  -18.6557 C   0  0  0  0  0  0  0  0  0  0  0  0
   -5.9663    5.0013  -17.5669 C   0  0  0  0  0  0  0  0  0  0  0  0
   -5.8881    5.4172  -16.2562 C   0  0  0  0  0  0  0  0  0  0  0  0
   -7.0108    5.2196  -15.4475 C   0  0  0  0  0  0  0  0  0  0  0  0
   -6.9941    5.7589  -14.0757 C   0  0  0  0  0  0  0  0  0  0  0  0
   -6.6124    6.8475  -13.9026 O   0  0  0  0  0  0  0  0  0  0  0  0
   -7.6122    4.7479  -13.0898 N   0  0  0  0  0  0  0  0  0  0  0  0
   -7.7959    4.8250  -11.7240 C   0  0  0  0  0  0  0  0  0  0  0  0
   -7.4268    5.9820  -11.0157 C   0  0  0  0  0  0  0  0  0  0  0  0
   -7.5843    6.0559   -9.6332 C   0  0  0  0  0  0  0  0  0  0  0  0
   -8.1192    4.9601   -8.9939 C   0  0  0  0  0  0  0  0  0  0  0  0
   -8.5077    3.8410   -9.7136 C   0  0  0  0  0  0  0  0  0  0  0  0
   -8.3581    3.7315  -11.0765 C   0  0  0  0  0  0  0  0  0  0  0  0
   -9.0715    2.8761   -8.7828 C   0  0  0  0  0  0  0  0  0  0  0  0
   -9.5058    1.8125   -9.1632 O   0  0  0  0  0  0  0  0  0  0  0  0
   -9.0489    3.4507   -7.5079 N   0  0  0  0  0  0  0  0  0  0  0  0
   -9.0180    2.6451   -6.2833 C   0  0  1  0  0  0  0  0  0  0  0  0
   -9.2137    3.5300   -5.0327 C   0  0  0  0  0  0  0  0  0  0  0  0
  -10.6833    3.8885   -4.8748 C   0  0  0  0  0  0  0  0  0  0  0  0
  -11.5106    2.6330   -4.7850 C   0  0  0  0  0  0  0  0  0  0  0  0
  -12.6556    2.5989   -4.3540 O   0  0  0  0  0  0  0  0  0  0  0  0
  -10.9373    1.4951   -5.2251 N   0  0  0  0  0  0  0  0  0  0  0  0
  -10.0282    1.4860   -6.2294 C   0  0  0  0  0  0  0  0  0  0  0  0
  -10.0915    0.5577   -7.0207 O   0  0  0  0  0  0  0  0  0  0  0  0
   -8.3427    4.7233   -7.5508 C   0  0  0  0  0  0  0  0  0  0  0  0
   -8.1960    4.6518  -15.9465 C   0  0  0  0  0  0  0  0  0  0  0  0
   -8.2585    4.2426  -17.2704 C   0  0  0  0  0  0  0  0  0  0  0  0
   -9.7849    3.7414  -17.8563 Cl  0  0  0  0  0  0  0  0  0  0  0  0
   -7.1233    4.3957  -18.0570 C   0  0  0  0  0  0  0  0  0  0  0  0
  1  2  1  0
  2  3  1  0
  3  4  2  0
  3  5  1  0
  5  6  1  0
  6  7  2  0
  7  8  1  0
  8  9  1  0
  9 10  2  0
  9 11  1  0
 11 12  1  0
 12 13  2  0
 13 14  1  0
 14 15  2  0
 15 16  1  0
 16 17  2  0
 16 18  1  0
 18 19  2  0
 18 20  1  0
 21 20  1  6
 21 22  1  0
 22 23  1  0
 23 24  1  0
 24 25  2  0
 24 26  1  0
 26 27  1  0
 27 28  2  0
 20 29  1  0
  8 30  2  0
 30 31  1  0
 31 32  1  0
 31 33  2  0
 33  2  1  0
 33  6  1  0
 17 12  1  0
 27 21  1  0
 29 15  1  0
M  END
>  <name>  (1061) 
P127269

>  <alias>  (1061) 
None

>  <smina_score_min>  (1061) 
-8.964

>  <exports>  (1061) 
['/opt/xchem-fragalysis-2/maxwin/BulkDock/OUTPUTS/openbind_xx01zvns2b_c2_elabs_1LOUTNY.sdf', '/opt/xchem-fragalysis-2/maxwin/BulkDock/OUTPUTS/openbind_xx01zvns2b_c2_elabs_1LSYIIV.sdf']

>  <tags>  (1061) 
syndirella_placed,openbind_xx01zvns2b_c2_elabs,openbind_xx01zvns2b_c2_elabs_scored_6.2plus,syndirella_product,openbind_xx01zvns2b_c2_elabs_scored,openbind_xx01zvns2b_c2_elabs_scored_top80percent,BulkDock Fragalysis export

>  <subsites>  (1061) 
1 - Z4590/B/203/1

>  <smiles>  (1061) 
CN1C(=O)Cc2cc(C(=O)Nc3ccc4c(c3)C(=O)N([C@H]3CCC(=O)NC3=O)C4)cc(Cl)c21

>  <HIPPO Pose ID>  (1061) 
127269

>  <energy_score>  (1061) 
-5.447801

>  <inchikey>  (1061) 
ASEIKOMWMXAGHB-KRWDZBQOSA-N

>  <gnina_score_min>  (1061) 
6.227

>  <gnina_score>  (1061) 
6.385

>  <ref_mols>  (1061) 
Z4756a

>  <HIPPO Compound ID>  (1061) 
189312

>  <distance_score>  (1061) 
0.908499

>  <rmsd(smina/fragmenstein)>  (1061) 
0.538

>  <ref_pdb>  (1061) 
Z4756a

>  <inspiration_score>  (1061) 
None

$$$$
P127278
     RDKit          3D

 33 37  0  0  0  0  0  0  0  0999 V2000
   -7.7974    3.2979  -20.1268 C   0  0  0  0  0  0  0  0  0  0  0  0
   -6.9265    4.0609  -19.3234 N   0  0  0  0  0  0  0  0  0  0  0  0
   -5.6731    4.4628  -19.7590 C   0  0  0  0  0  0  0  0  0  0  0  0
   -5.1975    4.3109  -20.8753 O   0  0  0  0  0  0  0  0  0  0  0  0
   -4.9856    5.1027  -18.5588 C   0  0  0  0  0  0  0  0  0  0  0  0
   -6.0212    4.9693  -17.4801 C   0  0  0  0  0  0  0  0  0  0  0  0
   -5.9509    5.3463  -16.1565 C   0  0  0  0  0  0  0  0  0  0  0  0
   -7.0773    5.1207  -15.3588 C   0  0  0  0  0  0  0  0  0  0  0  0
   -7.0777    5.6175  -13.9732 C   0  0  0  0  0  0  0  0  0  0  0  0
   -6.7266    6.7117  -13.7704 O   0  0  0  0  0  0  0  0  0  0  0  0
   -7.6181    4.5439  -13.0044 N   0  0  0  0  0  0  0  0  0  0  0  0
   -7.9167    4.6192  -11.6547 C   0  0  0  0  0  0  0  0  0  0  0  0
   -7.8600    5.8665  -11.0057 C   0  0  0  0  0  0  0  0  0  0  0  0
   -8.1135    5.9670   -9.6461 C   0  0  0  0  0  0  0  0  0  0  0  0
   -8.4015    4.7955   -8.9824 C   0  0  0  0  0  0  0  0  0  0  0  0
   -8.4744    3.5495   -9.6027 C   0  0  0  0  0  0  0  0  0  0  0  0
   -8.2541    3.4473  -10.9630 C   0  0  0  0  0  0  0  0  0  0  0  0
   -8.7647    2.4955   -8.5835 C   0  0  0  0  0  0  0  0  0  0  0  0
   -8.6944    3.2600   -7.3362 N   0  0  0  0  0  0  0  0  0  0  0  0
   -8.7497    2.6039   -6.0319 C   0  0  1  0  0  0  0  0  0  0  0  0
   -7.9970    3.3824   -4.9379 C   0  0  0  0  0  0  0  0  0  0  0  0
   -8.8562    4.2519   -4.0300 C   0  0  2  0  0  0  0  0  0  0  0  0
   -8.7695    3.7381   -2.7602 F   0  0  0  0  0  0  0  0  0  0  0  0
  -10.3270    4.3221   -4.4081 C   0  0  0  0  0  0  0  0  0  0  0  0
  -10.8643    3.0555   -4.8328 N   0  0  0  0  0  0  0  0  0  0  0  0
  -10.1961    2.2362   -5.6955 C   0  0  0  0  0  0  0  0  0  0  0  0
  -10.7889    1.3085   -6.2423 O   0  0  0  0  0  0  0  0  0  0  0  0
   -8.6013    4.6163   -7.5517 C   0  0  0  0  0  0  0  0  0  0  0  0
   -8.6227    5.5279   -6.7456 O   0  0  0  0  0  0  0  0  0  0  0  0
   -8.2601    4.5710  -15.8783 C   0  0  0  0  0  0  0  0  0  0  0  0
   -8.3194    4.2163  -17.2184 C   0  0  0  0  0  0  0  0  0  0  0  0
   -9.8475    3.7616  -17.8369 Cl  0  0  0  0  0  0  0  0  0  0  0  0
   -7.1786    4.3857  -17.9948 C   0  0  0  0  0  0  0  0  0  0  0  0
  1  2  1  0
  2  3  1  0
  3  4  2  0
  3  5  1  0
  5  6  1  0
  6  7  2  0
  7  8  1  0
  8  9  1  0
  9 10  2  0
  9 11  1  0
 11 12  1  0
 12 13  2  0
 13 14  1  0
 14 15  2  0
 15 16  1  0
 16 17  2  0
 16 18  1  0
 18 19  1  0
 20 19  1  6
 20 21  1  0
 21 22  1  0
 22 23  1  1
 22 24  1  0
 24 25  1  0
 25 26  1  0
 26 27  2  0
 19 28  1  0
 28 29  2  0
  8 30  2  0
 30 31  1  0
 31 32  1  0
 31 33  2  0
 33  2  1  0
 33  6  1  0
 17 12  1  0
 26 20  1  0
 28 15  1  0
M  END
>  <name>  (1062) 
P127278

>  <alias>  (1062) 
None

>  <smina_score_min>  (1062) 
-9.262

>  <exports>  (1062) 
['/opt/xchem-fragalysis-2/maxwin/BulkDock/OUTPUTS/openbind_xx01zvns2b_c2_elabs_1LOUTNY.sdf', '/opt/xchem-fragalysis-2/maxwin/BulkDock/OUTPUTS/openbind_xx01zvns2b_c2_elabs_1LSYIIV.sdf']

>  <tags>  (1062) 
syndirella_placed,openbind_xx01zvns2b_c2_elabs,openbind_xx01zvns2b_c2_elabs_scored_6.2plus,syndirella_product,openbind_xx01zvns2b_c2_elabs_scored,openbind_xx01zvns2b_c2_elabs_scored_top80percent,BulkDock Fragalysis export

>  <subsites>  (1062) 
1 - Z4590/B/203/1

>  <smiles>  (1062) 
CN1C(=O)Cc2cc(C(=O)Nc3ccc4c(c3)CN([C@H]3C[C@H](F)CNC3=O)C4=O)cc(Cl)c21

>  <HIPPO Pose ID>  (1062) 
127278

>  <energy_score>  (1062) 
-20.372731

>  <inchikey>  (1062) 
SYZVXQSXRPLYLF-KSSFIOAISA-N

>  <gnina_score_min>  (1062) 
6.282

>  <gnina_score>  (1062) 
6.349

>  <ref_mols>  (1062) 
Z4756a

>  <HIPPO Compound ID>  (1062) 
189320

>  <distance_score>  (1062) 
0.806636

>  <rmsd(smina/fragmenstein)>  (1062) 
0.714

>  <ref_pdb>  (1062) 
Z4756a

>  <inspiration_score>  (1062) 
None

$$$$
P127281
     RDKit          3D

 33 38  0  0  0  0  0  0  0  0999 V2000
   -7.2495    6.3936  -14.3123 O   0  0  0  0  0  0  0  0  0  0  0  0
   -7.6057    5.2858  -14.4172 C   0  0  0  0  0  0  0  0  0  0  0  0
   -8.1020    4.2862  -13.3452 N   0  0  0  0  0  0  0  0  0  0  0  0
   -8.1709    4.4063  -11.9605 C   0  0  0  0  0  0  0  0  0  0  0  0
   -7.9333    5.6571  -11.3573 C   0  0  0  0  0  0  0  0  0  0  0  0
   -8.0292    5.8148   -9.9775 C   0  0  0  0  0  0  0  0  0  0  0  0
   -8.3351    4.6924   -9.2385 C   0  0  0  0  0  0  0  0  0  0  0  0
   -8.5443    3.4384   -9.8055 C   0  0  0  0  0  0  0  0  0  0  0  0
   -8.4866    3.2839  -11.1817 C   0  0  0  0  0  0  0  0  0  0  0  0
   -8.8094    2.4370   -8.7263 C   0  0  0  0  0  0  0  0  0  0  0  0
   -8.6450    3.2401   -7.5121 N   0  0  0  0  0  0  0  0  0  0  0  0
   -8.6941    2.6177   -6.1870 C   0  0  1  0  0  0  0  0  0  0  0  0
   -7.9789    3.4217   -5.0907 C   0  0  0  0  0  0  0  0  0  0  0  0
   -8.8492    4.4117   -4.3291 C   0  0  2  0  0  0  0  0  0  0  0  0
   -8.7254    4.1311   -2.9921 F   0  0  0  0  0  0  0  0  0  0  0  0
  -10.3264    4.3722   -4.6901 C   0  0  0  0  0  0  0  0  0  0  0  0
  -10.8098    3.0507   -4.9926 N   0  0  0  0  0  0  0  0  0  0  0  0
  -10.1246    2.2158   -5.8288 C   0  0  0  0  0  0  0  0  0  0  0  0
  -10.6868    1.2493   -6.3360 O   0  0  0  0  0  0  0  0  0  0  0  0
   -8.4628    4.5767   -7.7888 C   0  0  0  0  0  0  0  0  0  0  0  0
   -8.3858    5.5197   -7.0230 O   0  0  0  0  0  0  0  0  0  0  0  0
   -7.6686    4.7225  -15.7907 C   0  0  0  0  0  0  0  0  0  0  0  0
   -8.8325    4.0810  -16.2573 C   0  0  0  0  0  0  0  0  0  0  0  0
   -8.9292    3.6651  -17.5853 C   0  0  0  0  0  0  0  0  0  0  0  0
   -7.8453    3.9063  -18.3990 C   0  0  0  0  0  0  0  0  0  0  0  0
   -6.6841    4.5668  -17.9697 C   0  0  0  0  0  0  0  0  0  0  0  0
   -6.5900    4.9786  -16.6523 C   0  0  0  0  0  0  0  0  0  0  0  0
   -5.7674    4.6857  -19.1461 C   0  0  0  0  0  0  0  0  0  0  0  0
   -4.2700    4.7553  -19.0446 C   0  0  0  0  0  0  0  0  0  0  0  0
   -5.0490    5.9792  -19.4433 C   0  0  0  0  0  0  0  0  0  0  0  0
   -6.4858    3.9429  -20.2487 C   0  0  0  0  0  0  0  0  0  0  0  0
   -6.0499    3.7431  -21.3726 O   0  0  0  0  0  0  0  0  0  0  0  0
   -7.7083    3.5423  -19.7377 N   0  0  0  0  0  0  0  0  0  0  0  0
  1  2  2  0
  2  3  1  0
  3  4  1  0
  4  5  2  0
  5  6  1  0
  6  7  2  0
  7  8  1  0
  8  9  2  0
  8 10  1  0
 10 11  1  0
 12 11  1  6
 12 13  1  0
 13 14  1  0
 14 15  1  1
 14 16  1  0
 16 17  1  0
 17 18  1  0
 18 19  2  0
 11 20  1  0
 20 21  2  0
  2 22  1  0
 22 23  2  0
 23 24  1  0
 24 25  2  0
 25 26  1  0
 26 27  2  0
 26 28  1  0
 28 29  1  0
 29 30  1  0
 28 31  1  0
 31 32  2  0
 31 33  1  0
  9  4  1  0
 18 12  1  0
 27 22  1  0
 30 28  1  0
 20  7  1  0
 33 25  1  0
M  END
>  <name>  (1063) 
P127281

>  <alias>  (1063) 
None

>  <smina_score_min>  (1063) 
-11.254

>  <exports>  (1063) 
['/opt/xchem-fragalysis-2/maxwin/BulkDock/OUTPUTS/openbind_xx01zvns2b_c2_elabs_1LOUTNY.sdf', '/opt/xchem-fragalysis-2/maxwin/BulkDock/OUTPUTS/openbind_xx01zvns2b_c2_elabs_1LSYIIV.sdf']

>  <tags>  (1063) 
syndirella_placed,openbind_xx01zvns2b_c2_elabs,openbind_xx01zvns2b_c2_elabs_scored_6.2plus,syndirella_product,openbind_xx01zvns2b_c2_elabs_scored,openbind_xx01zvns2b_c2_elabs_scored_top80percent,BulkDock Fragalysis export

>  <subsites>  (1063) 
1 - Z4590/B/203/1

>  <smiles>  (1063) 
O=C(Nc1ccc2c(c1)CN([C@H]1C[C@H](F)CNC1=O)C2=O)c1ccc2c(c1)C1(CC1)C(=O)N2

>  <HIPPO Pose ID>  (1063) 
127281

>  <energy_score>  (1063) 
-49.477421

>  <inchikey>  (1063) 
PDWOPHPZRFEOMT-LIRRHRJNSA-N

>  <gnina_score_min>  (1063) 
6.207

>  <gnina_score>  (1063) 
6.209

>  <ref_mols>  (1063) 
Z4756a

>  <HIPPO Compound ID>  (1063) 
189321

>  <distance_score>  (1063) 
0.304579

>  <rmsd(smina/fragmenstein)>  (1063) 
0.525

>  <ref_pdb>  (1063) 
Z4756a

>  <inspiration_score>  (1063) 
None

$$$$
P127294
     RDKit          3D

 33 37  0  0  0  0  0  0  0  0999 V2000
  -10.5144    5.2409   -1.2775 C   0  0  0  0  0  0  0  0  0  0  0  0
   -9.0965    4.8107   -1.6437 C   0  0  0  0  0  0  0  0  0  0  0  0
   -8.6254    3.6704   -0.7414 C   0  0  0  0  0  0  0  0  0  0  0  0
   -8.8914    4.4636   -3.1085 C   0  0  0  0  0  0  0  0  0  0  0  0
   -7.6330    4.6955   -3.6621 C   0  0  0  0  0  0  0  0  0  0  0  0
   -7.4122    4.4576   -5.0155 C   0  0  0  0  0  0  0  0  0  0  0  0
   -8.4117    3.9508   -5.8721 C   0  0  0  0  0  0  0  0  0  0  0  0
   -8.1563    3.9987   -7.2298 N   0  0  0  0  0  0  0  0  0  0  0  0
   -8.0932    5.3940   -7.6776 C   0  0  0  0  0  0  0  0  0  0  0  0
   -8.0691    5.2640   -9.1510 C   0  0  0  0  0  0  0  0  0  0  0  0
   -7.7391    6.2681  -10.0333 C   0  0  0  0  0  0  0  0  0  0  0  0
   -7.6436    5.9319  -11.3676 C   0  0  0  0  0  0  0  0  0  0  0  0
   -7.9003    4.6217  -11.8046 C   0  0  0  0  0  0  0  0  0  0  0  0
   -7.6993    4.3629  -13.1569 N   0  0  0  0  0  0  0  0  0  0  0  0
   -7.0063    5.2149  -14.2539 C   0  0  0  0  0  0  0  0  0  0  0  0
   -6.4301    6.2300  -14.1743 O   0  0  0  0  0  0  0  0  0  0  0  0
   -7.2053    4.6836  -15.6140 C   0  0  0  0  0  0  0  0  0  0  0  0
   -8.5075    4.3712  -16.0318 C   0  0  0  0  0  0  0  0  0  0  0  0
   -8.7539    4.1023  -17.3756 C   0  0  0  0  0  0  0  0  0  0  0  0
  -10.5192    4.0841  -17.9681 Br  0  0  0  0  0  0  0  0  0  0  0  0
   -7.7016    4.0721  -18.2633 C   0  0  0  0  0  0  0  0  0  0  0  0
   -6.4269    4.4161  -17.8358 C   0  0  0  0  0  0  0  0  0  0  0  0
   -6.1445    4.7448  -16.5267 C   0  0  0  0  0  0  0  0  0  0  0  0
   -5.5594    4.3912  -19.0130 C   0  0  0  0  0  0  0  0  0  0  0  0
   -4.3837    4.6733  -19.0610 O   0  0  0  0  0  0  0  0  0  0  0  0
   -6.4710    3.9199  -20.1796 C   0  0  0  0  0  0  0  0  0  0  0  0
   -6.1208    3.7195  -21.3227 O   0  0  0  0  0  0  0  0  0  0  0  0
   -7.7214    3.7671  -19.6226 N   0  0  0  0  0  0  0  0  0  0  0  0
   -8.3171    3.6247  -10.9019 C   0  0  0  0  0  0  0  0  0  0  0  0
   -8.3770    3.9582   -9.5509 C   0  0  0  0  0  0  0  0  0  0  0  0
   -8.6949    3.1332   -8.3156 C   0  0  0  0  0  0  0  0  0  0  0  0
   -9.6387    3.6382   -5.3050 C   0  0  0  0  0  0  0  0  0  0  0  0
   -9.8830    3.9227   -3.9463 C   0  0  0  0  0  0  0  0  0  0  0  0
  1  2  1  0
  2  3  1  0
  2  4  1  0
  4  5  2  0
  5  6  1  0
  6  7  2  0
  7  8  1  0
  8  9  1  0
  9 10  1  0
 10 11  2  0
 11 12  1  0
 12 13  2  0
 13 14  1  0
 14 15  1  0
 15 16  2  0
 15 17  1  0
 17 18  2  0
 18 19  1  0
 19 20  1  0
 19 21  2  0
 21 22  1  0
 22 23  2  0
 22 24  1  0
 24 25  2  0
 24 26  1  0
 26 27  2  0
 26 28  1  0
 13 29  1  0
 29 30  2  0
 30 31  1  0
  7 32  1  0
 32 33  2  0
 33  4  1  0
 31  8  1  0
 30 10  1  0
 23 17  1  0
 28 21  1  0
M  END
>  <name>  (1064) 
P127294

>  <alias>  (1064) 
None

>  <smina_score_min>  (1064) 
-10.411

>  <exports>  (1064) 
['/opt/xchem-fragalysis-2/maxwin/BulkDock/OUTPUTS/openbind_xx01zvns2b_c2_elabs_1LOUTNY.sdf', '/opt/xchem-fragalysis-2/maxwin/BulkDock/OUTPUTS/openbind_xx01zvns2b_c2_elabs_1LSYIIV.sdf']

>  <tags>  (1064) 
syndirella_placed,openbind_xx01zvns2b_c2_elabs,openbind_xx01zvns2b_c2_elabs_scored_6.2plus,syndirella_product,openbind_xx01zvns2b_c2_elabs_scored,openbind_xx01zvns2b_c2_elabs_scored_top80percent,BulkDock Fragalysis export

>  <subsites>  (1064) 
1 - Z4590/B/203/1

>  <smiles>  (1064) 
CC(C)c1ccc(N2Cc3ccc(NC(=O)c4cc(Br)c5c(c4)C(=O)C(=O)N5)cc3C2)cc1

>  <HIPPO Pose ID>  (1064) 
127294

>  <energy_score>  (1064) 
-17.881116

>  <inchikey>  (1064) 
SDIMBTFEWJPMKC-UHFFFAOYSA-N

>  <gnina_score_min>  (1064) 
6.206

>  <gnina_score>  (1064) 
6.076

>  <ref_mols>  (1064) 
Z4756a

>  <HIPPO Compound ID>  (1064) 
189329

>  <distance_score>  (1064) 
0.777074

>  <rmsd(smina/fragmenstein)>  (1064) 
0.355

>  <ref_pdb>  (1064) 
Z4756a

>  <inspiration_score>  (1064) 
None

$$$$
P127295
     RDKit          3D

 33 37  0  0  0  0  0  0  0  0999 V2000
   -6.0650    3.7144  -21.4352 O   0  0  0  0  0  0  0  0  0  0  0  0
   -6.3916    3.9278  -20.2885 C   0  0  0  0  0  0  0  0  0  0  0  0
   -7.6232    3.7581  -19.6953 N   0  0  0  0  0  0  0  0  0  0  0  0
   -7.5820    4.1382  -18.3564 C   0  0  0  0  0  0  0  0  0  0  0  0
   -8.6139    4.1958  -17.4492 C   0  0  0  0  0  0  0  0  0  0  0  0
  -10.3960    4.0394  -17.9653 Br  0  0  0  0  0  0  0  0  0  0  0  0
   -8.3362    4.5694  -16.1389 C   0  0  0  0  0  0  0  0  0  0  0  0
   -7.0244    4.9267  -15.7730 C   0  0  0  0  0  0  0  0  0  0  0  0
   -6.7727    5.4208  -14.4059 C   0  0  0  0  0  0  0  0  0  0  0  0
   -6.2172    6.4363  -14.2647 O   0  0  0  0  0  0  0  0  0  0  0  0
   -7.4197    4.4820  -13.3672 N   0  0  0  0  0  0  0  0  0  0  0  0
   -7.4357    4.5456  -11.9871 C   0  0  0  0  0  0  0  0  0  0  0  0
   -6.8287    5.6168  -11.3037 C   0  0  0  0  0  0  0  0  0  0  0  0
   -6.8467    5.6782   -9.9105 C   0  0  0  0  0  0  0  0  0  0  0  0
   -7.4790    4.6499   -9.2499 C   0  0  0  0  0  0  0  0  0  0  0  0
   -8.0892    3.6178   -9.9243 C   0  0  0  0  0  0  0  0  0  0  0  0
   -8.0929    3.5294  -11.2977 C   0  0  0  0  0  0  0  0  0  0  0  0
   -8.7795    2.7996   -8.9511 C   0  0  0  0  0  0  0  0  0  0  0  0
   -9.5173    1.9067   -9.3229 O   0  0  0  0  0  0  0  0  0  0  0  0
   -8.5293    3.3605   -7.7128 N   0  0  0  0  0  0  0  0  0  0  0  0
   -9.2991    3.0524   -6.5707 C   0  0  0  0  0  0  0  0  0  0  0  0
   -9.4971    4.0043   -5.5554 C   0  0  0  0  0  0  0  0  0  0  0  0
  -10.5410    3.8526   -4.6503 C   0  0  0  0  0  0  0  0  0  0  0  0
  -11.3719    2.7534   -4.7688 C   0  0  0  0  0  0  0  0  0  0  0  0
  -12.4756    2.6643   -4.0236 F   0  0  0  0  0  0  0  0  0  0  0  0
  -11.0938    1.7434   -5.6599 C   0  0  0  0  0  0  0  0  0  0  0  0
  -10.0386    1.8712   -6.5407 C   0  0  0  0  0  0  0  0  0  0  0  0
   -7.7114    4.4580   -7.8285 C   0  0  0  0  0  0  0  0  0  0  0  0
   -7.2232    5.2041   -6.9957 O   0  0  0  0  0  0  0  0  0  0  0  0
   -5.9862    4.9432  -16.7026 C   0  0  0  0  0  0  0  0  0  0  0  0
   -6.3034    4.5336  -17.9789 C   0  0  0  0  0  0  0  0  0  0  0  0
   -5.4607    4.4547  -19.1674 C   0  0  0  0  0  0  0  0  0  0  0  0
   -4.2861    4.7334  -19.2474 O   0  0  0  0  0  0  0  0  0  0  0  0
  1  2  2  0
  2  3  1  0
  3  4  1  0
  4  5  2  0
  5  6  1  0
  5  7  1  0
  7  8  2  0
  8  9  1  0
  9 10  2  0
  9 11  1  0
 11 12  1  0
 12 13  2  0
 13 14  1  0
 14 15  2  0
 15 16  1  0
 16 17  2  0
 16 18  1  0
 18 19  2  0
 18 20  1  0
 20 21  1  0
 21 22  2  0
 22 23  1  0
 23 24  2  0
 24 25  1  0
 24 26  1  0
 26 27  2  0
 20 28  1  0
 28 29  2  0
  8 30  1  0
 30 31  2  0
 31 32  1  0
 32 33  2  0
 32  2  1  0
 31  4  1  0
 17 12  1  0
 27 21  1  0
 28 15  1  0
M  END
>  <name>  (1065) 
P127295

>  <alias>  (1065) 
None

>  <smina_score_min>  (1065) 
-10.255

>  <exports>  (1065) 
['/opt/xchem-fragalysis-2/maxwin/BulkDock/OUTPUTS/openbind_xx01zvns2b_c2_elabs_1LOUTNY.sdf', '/opt/xchem-fragalysis-2/maxwin/BulkDock/OUTPUTS/openbind_xx01zvns2b_c2_elabs_1LSYIIV.sdf']

>  <tags>  (1065) 
syndirella_placed,openbind_xx01zvns2b_c2_elabs,openbind_xx01zvns2b_c2_elabs_scored_6.2plus,syndirella_product,openbind_xx01zvns2b_c2_elabs_scored,openbind_xx01zvns2b_c2_elabs_scored_top80percent,BulkDock Fragalysis export

>  <subsites>  (1065) 
1 - Z4590/B/203/1

>  <smiles>  (1065) 
O=C1Nc2c(Br)cc(C(=O)Nc3ccc4c(c3)C(=O)N(c3ccc(F)cc3)C4=O)cc2C1=O

>  <HIPPO Pose ID>  (1065) 
127295

>  <energy_score>  (1065) 
-4.523592

>  <inchikey>  (1065) 
WXWHNXVXXBYIFP-UHFFFAOYSA-N

>  <gnina_score_min>  (1065) 
6.204

>  <gnina_score>  (1065) 
6.22

>  <ref_mols>  (1065) 
Z4756a

>  <HIPPO Compound ID>  (1065) 
189330

>  <distance_score>  (1065) 
0.798634

>  <rmsd(smina/fragmenstein)>  (1065) 
0.479

>  <ref_pdb>  (1065) 
Z4756a

>  <inspiration_score>  (1065) 
None

$$$$
P127298
     RDKit          3D

 33 37  0  0  0  0  0  0  0  0999 V2000
   -6.0601    3.7249  -21.4167 O   0  0  0  0  0  0  0  0  0  0  0  0
   -6.3944    3.9327  -20.2709 C   0  0  0  0  0  0  0  0  0  0  0  0
   -7.6309    3.7614  -19.6886 N   0  0  0  0  0  0  0  0  0  0  0  0
   -7.5983    4.1236  -18.3445 C   0  0  0  0  0  0  0  0  0  0  0  0
   -8.6377    4.1702  -17.4453 C   0  0  0  0  0  0  0  0  0  0  0  0
  -10.4168    4.0453  -17.9774 Br  0  0  0  0  0  0  0  0  0  0  0  0
   -8.3700    4.5183  -16.1273 C   0  0  0  0  0  0  0  0  0  0  0  0
   -7.0628    4.8744  -15.7466 C   0  0  0  0  0  0  0  0  0  0  0  0
   -6.8558    5.3877  -14.3810 C   0  0  0  0  0  0  0  0  0  0  0  0
   -6.3164    6.4123  -14.2394 O   0  0  0  0  0  0  0  0  0  0  0  0
   -7.5199    4.4549  -13.3459 N   0  0  0  0  0  0  0  0  0  0  0  0
   -7.5742    4.5380  -11.9656 C   0  0  0  0  0  0  0  0  0  0  0  0
   -7.2106    5.7354  -11.3251 C   0  0  0  0  0  0  0  0  0  0  0  0
   -7.3195    5.8574   -9.9471 C   0  0  0  0  0  0  0  0  0  0  0  0
   -7.7721    4.7538   -9.2588 C   0  0  0  0  0  0  0  0  0  0  0  0
   -8.1351    3.5620   -9.8703 C   0  0  0  0  0  0  0  0  0  0  0  0
   -8.0524    3.4381  -11.2425 C   0  0  0  0  0  0  0  0  0  0  0  0
   -8.6559    2.6093   -8.8500 C   0  0  0  0  0  0  0  0  0  0  0  0
   -8.5157    3.3592   -7.5938 N   0  0  0  0  0  0  0  0  0  0  0  0
   -9.4850    3.1619   -6.5387 C   0  0  2  0  0  0  0  0  0  0  0  0
   -9.0628    3.6248   -5.1412 C   0  0  0  0  0  0  0  0  0  0  0  0
  -10.3364    3.8533   -4.3279 C   0  0  2  0  0  0  0  0  0  0  0  0
  -10.0418    3.7420   -3.0072 F   0  0  0  0  0  0  0  0  0  0  0  0
  -11.4688    2.8934   -4.7430 C   0  0  0  0  0  0  0  0  0  0  0  0
  -10.9750    1.6682   -5.3091 N   0  0  0  0  0  0  0  0  0  0  0  0
  -10.1203    1.7591   -6.3859 C   0  0  0  0  0  0  0  0  0  0  0  0
   -9.9848    0.8332   -7.1710 O   0  0  0  0  0  0  0  0  0  0  0  0
   -8.0663    4.6532   -7.8404 C   0  0  0  0  0  0  0  0  0  0  0  0
   -8.0135    5.6107   -7.0891 O   0  0  0  0  0  0  0  0  0  0  0  0
   -6.0165    4.9074  -16.6668 C   0  0  0  0  0  0  0  0  0  0  0  0
   -6.3218    4.5122  -17.9515 C   0  0  0  0  0  0  0  0  0  0  0  0
   -5.4711    4.4478  -19.1363 C   0  0  0  0  0  0  0  0  0  0  0  0
   -4.2959    4.7271  -19.2064 O   0  0  0  0  0  0  0  0  0  0  0  0
  1  2  2  0
  2  3  1  0
  3  4  1  0
  4  5  2  0
  5  6  1  0
  5  7  1  0
  7  8  2  0
  8  9  1  0
  9 10  2  0
  9 11  1  0
 11 12  1  0
 12 13  2  0
 13 14  1  0
 14 15  2  0
 15 16  1  0
 16 17  2  0
 16 18  1  0
 18 19  1  0
 20 19  1  6
 20 21  1  0
 21 22  1  0
 22 23  1  1
 22 24  1  0
 24 25  1  0
 25 26  1  0
 26 27  2  0
 19 28  1  0
 28 29  2  0
  8 30  1  0
 30 31  2  0
 31 32  1  0
 32 33  2  0
 32  2  1  0
 31  4  1  0
 17 12  1  0
 26 20  1  0
 28 15  1  0
M  END
>  <name>  (1066) 
P127298

>  <alias>  (1066) 
None

>  <smina_score_min>  (1066) 
-10.902

>  <exports>  (1066) 
['/opt/xchem-fragalysis-2/maxwin/BulkDock/OUTPUTS/openbind_xx01zvns2b_c2_elabs_1LOUTNY.sdf', '/opt/xchem-fragalysis-2/maxwin/BulkDock/OUTPUTS/openbind_xx01zvns2b_c2_elabs_1LSYIIV.sdf']

>  <tags>  (1066) 
syndirella_placed,openbind_xx01zvns2b_c2_elabs,openbind_xx01zvns2b_c2_elabs_scored_6.2plus,syndirella_product,openbind_xx01zvns2b_c2_elabs_scored,openbind_xx01zvns2b_c2_elabs_scored_top80percent,BulkDock Fragalysis export

>  <subsites>  (1066) 
1 - Z4590/B/203/1

>  <smiles>  (1066) 
O=C1Nc2c(Br)cc(C(=O)Nc3ccc4c(c3)CN([C@@H]3C[C@H](F)CNC3=O)C4=O)cc2C1=O

>  <HIPPO Pose ID>  (1066) 
127298

>  <energy_score>  (1066) 
-29.365032

>  <inchikey>  (1066) 
FOEIQZIGDNVDEI-MEDUHNTESA-N

>  <gnina_score_min>  (1066) 
6.418

>  <gnina_score>  (1066) 
6.404

>  <ref_mols>  (1066) 
Z4756a

>  <HIPPO Compound ID>  (1066) 
189332

>  <distance_score>  (1066) 
0.689487

>  <rmsd(smina/fragmenstein)>  (1066) 
0.488

>  <ref_pdb>  (1066) 
Z4756a

>  <inspiration_score>  (1066) 
None

$$$$
P127306
     RDKit          3D

 33 37  0  0  0  0  0  0  0  0999 V2000
   -7.8203    3.3136  -20.0964 C   0  0  0  0  0  0  0  0  0  0  0  0
   -6.9503    4.0677  -19.2816 N   0  0  0  0  0  0  0  0  0  0  0  0
   -5.6920    4.4665  -19.7067 C   0  0  0  0  0  0  0  0  0  0  0  0
   -5.2079    4.3164  -20.8197 O   0  0  0  0  0  0  0  0  0  0  0  0
   -5.0114    5.1019  -18.4995 C   0  0  0  0  0  0  0  0  0  0  0  0
   -6.0544    4.9685  -17.4275 C   0  0  0  0  0  0  0  0  0  0  0  0
   -5.9949    5.3487  -16.1030 C   0  0  0  0  0  0  0  0  0  0  0  0
   -7.1284    5.1269  -15.3139 C   0  0  0  0  0  0  0  0  0  0  0  0
   -7.1483    5.6384  -13.9333 C   0  0  0  0  0  0  0  0  0  0  0  0
   -6.8983    6.7635  -13.7512 O   0  0  0  0  0  0  0  0  0  0  0  0
   -7.5883    4.5380  -12.9439 N   0  0  0  0  0  0  0  0  0  0  0  0
   -7.8927    4.6107  -11.5928 C   0  0  0  0  0  0  0  0  0  0  0  0
   -7.8623    5.8538  -10.9336 C   0  0  0  0  0  0  0  0  0  0  0  0
   -8.1395    5.9429   -9.5744 C   0  0  0  0  0  0  0  0  0  0  0  0
   -8.4118    4.7643   -8.9161 C   0  0  0  0  0  0  0  0  0  0  0  0
   -8.4410    3.5211   -9.5473 C   0  0  0  0  0  0  0  0  0  0  0  0
   -8.2105    3.4304  -10.9073 C   0  0  0  0  0  0  0  0  0  0  0  0
   -8.7135    2.4532   -8.5398 C   0  0  0  0  0  0  0  0  0  0  0  0
   -8.6565    3.2022   -7.2866 N   0  0  0  0  0  0  0  0  0  0  0  0
   -8.8290    2.5633   -5.9926 C   0  0  2  0  0  0  0  0  0  0  0  0
  -10.2867    2.3824   -5.5969 C   0  0  0  0  0  0  0  0  0  0  0  0
  -10.8621    3.6118   -4.9299 C   0  0  0  0  0  0  0  0  0  0  0  0
   -9.9984    4.1276   -3.8074 C   0  0  0  0  0  0  0  0  0  0  0  0
  -10.4363    4.8478   -2.9114 O   0  0  0  0  0  0  0  0  0  0  0  0
   -8.6720    3.8159   -3.8443 N   0  0  0  0  0  0  0  0  0  0  0  0
   -7.9912    3.2970   -4.9142 C   0  0  0  0  0  0  0  0  0  0  0  0
   -6.7741    3.4971   -4.9897 O   0  0  0  0  0  0  0  0  0  0  0  0
   -8.6538    4.5650   -7.4895 C   0  0  0  0  0  0  0  0  0  0  0  0
   -8.7970    5.4539   -6.6717 O   0  0  0  0  0  0  0  0  0  0  0  0
   -8.3059    4.5747  -15.8417 C   0  0  0  0  0  0  0  0  0  0  0  0
   -8.3552    4.2200  -17.1833 C   0  0  0  0  0  0  0  0  0  0  0  0
   -9.8800    3.7752  -17.8173 Cl  0  0  0  0  0  0  0  0  0  0  0  0
   -7.2090    4.3877  -17.9522 C   0  0  0  0  0  0  0  0  0  0  0  0
  1  2  1  0
  2  3  1  0
  3  4  2  0
  3  5  1  0
  5  6  1  0
  6  7  2  0
  7  8  1  0
  8  9  1  0
  9 10  2  0
  9 11  1  0
 11 12  1  0
 12 13  2  0
 13 14  1  0
 14 15  2  0
 15 16  1  0
 16 17  2  0
 16 18  1  0
 18 19  1  0
 20 19  1  6
 20 21  1  0
 21 22  1  0
 22 23  1  0
 23 24  2  0
 23 25  1  0
 25 26  1  0
 26 27  2  0
 19 28  1  0
 28 29  2  0
  8 30  2  0
 30 31  1  0
 31 32  1  0
 31 33  2  0
 33  2  1  0
 33  6  1  0
 17 12  1  0
 26 20  1  0
 28 15  1  0
M  END
>  <name>  (1067) 
P127306

>  <alias>  (1067) 
None

>  <smina_score_min>  (1067) 
-8.623

>  <exports>  (1067) 
['/opt/xchem-fragalysis-2/maxwin/BulkDock/OUTPUTS/openbind_xx01zvns2b_c2_elabs_1LOUTNY.sdf', '/opt/xchem-fragalysis-2/maxwin/BulkDock/OUTPUTS/openbind_xx01zvns2b_c2_elabs_1LSYIIV.sdf']

>  <tags>  (1067) 
syndirella_placed,openbind_xx01zvns2b_c2_elabs,openbind_xx01zvns2b_c2_elabs_scored_6.2plus,syndirella_product,openbind_xx01zvns2b_c2_elabs_scored,openbind_xx01zvns2b_c2_elabs_scored_top80percent,BulkDock Fragalysis export

>  <subsites>  (1067) 
1 - Z4590/B/203/1

>  <smiles>  (1067) 
CN1C(=O)Cc2cc(C(=O)Nc3ccc4c(c3)CN([C@@H]3CCC(=O)NC3=O)C4=O)cc(Cl)c21

>  <HIPPO Pose ID>  (1067) 
127306

>  <energy_score>  (1067) 
-31.555428

>  <inchikey>  (1067) 
SNBXACYRMZTFDP-QGZVFWFLSA-N

>  <gnina_score_min>  (1067) 
6.315

>  <gnina_score>  (1067) 
6.299

>  <ref_mols>  (1067) 
Z4756a

>  <HIPPO Compound ID>  (1067) 
189335

>  <distance_score>  (1067) 
0.812878

>  <rmsd(smina/fragmenstein)>  (1067) 
0.265

>  <ref_pdb>  (1067) 
Z4756a

>  <inspiration_score>  (1067) 
None

$$$$
P127564
     RDKit          3D

 30 34  0  0  0  0  0  0  0  0999 V2000
   -5.9707    1.9731  -12.6784 C   0  0  0  0  0  0  0  0  0  0  0  0
   -6.1746    3.1902  -11.9443 N   0  0  0  0  0  0  0  0  0  0  0  0
   -5.0780    4.0331  -11.7818 C   0  0  0  0  0  0  0  0  0  0  0  0
   -3.9895    3.8525  -12.3186 O   0  0  0  0  0  0  0  0  0  0  0  0
   -5.2615    5.1727  -10.8506 C   0  0  0  0  0  0  0  0  0  0  0  0
   -4.1727    5.9966  -10.5375 C   0  0  0  0  0  0  0  0  0  0  0  0
   -4.3114    6.9986   -9.5772 C   0  0  0  0  0  0  0  0  0  0  0  0
   -5.5303    7.1686   -8.9215 C   0  0  0  0  0  0  0  0  0  0  0  0
   -6.6189    6.3495   -9.2337 C   0  0  0  0  0  0  0  0  0  0  0  0
   -6.4969    5.3609  -10.2146 C   0  0  0  0  0  0  0  0  0  0  0  0
   -7.5779    4.5303  -10.5816 N   0  0  0  0  0  0  0  0  0  0  0  0
   -8.4536    3.9742   -9.6511 C   0  0  0  0  0  0  0  0  0  0  0  0
   -8.7402    4.3897   -8.5394 O   0  0  0  0  0  0  0  0  0  0  0  0
   -8.9229    2.6719  -10.2189 C   0  0  0  0  0  0  0  0  0  0  0  0
   -8.6790    2.8432  -11.7063 C   0  0  0  0  0  0  0  0  0  0  0  0
   -7.4999    3.7969  -11.8412 C   0  0  2  0  0  0  0  0  0  0  0  0
   -7.6072    4.7577  -13.1771 C   0  0  0  0  0  0  0  0  0  0  0  0
   -7.2526    5.8788  -13.1271 O   0  0  0  0  0  0  0  0  0  0  0  0
   -8.1166    3.9024  -14.3995 N   0  0  0  0  0  0  0  0  0  0  0  0
   -8.1942    4.2215  -15.7676 C   0  0  0  0  0  0  0  0  0  0  0  0
   -9.3576    3.9128  -16.4668 C   0  0  0  0  0  0  0  0  0  0  0  0
   -9.4507    4.1264  -17.8365 C   0  0  0  0  0  0  0  0  0  0  0  0
   -8.3449    4.5998  -18.5323 C   0  0  0  0  0  0  0  0  0  0  0  0
   -7.1360    4.8832  -17.8572 C   0  0  0  0  0  0  0  0  0  0  0  0
   -5.9550    5.3106  -18.4964 C   0  0  0  0  0  0  0  0  0  0  0  0
   -5.8261    5.5573  -19.8330 O   0  0  0  0  0  0  0  0  0  0  0  0
   -4.7797    5.4861  -17.7833 C   0  0  0  0  0  0  0  0  0  0  0  0
   -4.8084    5.2487  -16.4317 C   0  0  0  0  0  0  0  0  0  0  0  0
   -5.9149    4.8695  -15.7711 N   0  0  0  0  0  0  0  0  0  0  0  0
   -7.0646    4.6938  -16.4507 C   0  0  0  0  0  0  0  0  0  0  0  0
  1  2  1  0
  2  3  1  0
  3  4  2  0
  3  5  1  0
  5  6  2  0
  6  7  1  0
  7  8  2  0
  8  9  1  0
  9 10  2  0
 10 11  1  0
 11 12  1  0
 12 13  2  0
 12 14  1  0
 14 15  1  0
 15 16  1  0
 16 17  1  6
 17 18  2  0
 17 19  1  0
 19 20  1  0
 20 21  2  0
 21 22  1  0
 22 23  2  0
 23 24  1  0
 24 25  2  0
 25 26  1  0
 25 27  1  0
 27 28  2  0
 28 29  1  0
 29 30  2  0
 16  2  1  0
 30 20  1  0
 10  5  1  0
 16 11  1  0
 30 24  1  0
M  END
>  <name>  (1068) 
P127564

>  <alias>  (1068) 
None

>  <smina_score_min>  (1068) 
-9.117

>  <exports>  (1068) 
['/opt/xchem-fragalysis-2/maxwin/BulkDock/OUTPUTS/openbind_xx01zvns2b_c2_elabs_1LOUTNY.sdf', '/opt/xchem-fragalysis-2/maxwin/BulkDock/OUTPUTS/openbind_xx01zvns2b_c2_elabs_1LSYIIV.sdf']

>  <tags>  (1068) 
syndirella_placed,openbind_xx01zvns2b_c2_elabs,openbind_xx01zvns2b_c2_elabs_scored_6.2plus,syndirella_product,openbind_xx01zvns2b_c2_elabs_scored,openbind_xx01zvns2b_c2_elabs_scored_top80percent,BulkDock Fragalysis export

>  <subsites>  (1068) 
1 - Z4590/B/203/1

>  <smiles>  (1068) 
CN1C(=O)c2ccccc2N2C(=O)CC[C@]12C(=O)Nc1cccc2c(O)ccnc12

>  <HIPPO Pose ID>  (1068) 
127564

>  <energy_score>  (1068) 
-0.305933

>  <inchikey>  (1068) 
QKUZGQKTDKGXAV-QFIPXVFZSA-N

>  <gnina_score_min>  (1068) 
6.237

>  <gnina_score>  (1068) 
6.083

>  <ref_mols>  (1068) 
Z1728a

>  <HIPPO Compound ID>  (1068) 
189970

>  <distance_score>  (1068) 
1.39032

>  <rmsd(smina/fragmenstein)>  (1068) 
0.784

>  <ref_pdb>  (1068) 
Z1728a

>  <inspiration_score>  (1068) 
None

$$$$
P127592
     RDKit          3D

 31 33  0  0  0  0  0  0  0  0999 V2000
   -2.7409    5.1311  -15.6607 C   0  0  0  0  0  0  0  0  0  0  0  0
   -2.9633    5.2881  -17.0585 O   0  0  0  0  0  0  0  0  0  0  0  0
   -4.2893    5.1184  -17.4096 C   0  0  0  0  0  0  0  0  0  0  0  0
   -4.5637    5.1437  -18.7608 C   0  0  0  0  0  0  0  0  0  0  0  0
   -5.8722    4.9207  -19.1639 C   0  0  0  0  0  0  0  0  0  0  0  0
   -6.8705    4.6896  -18.2115 C   0  0  0  0  0  0  0  0  0  0  0  0
   -8.2019    4.4440  -18.5897 C   0  0  0  0  0  0  0  0  0  0  0  0
   -9.1770    4.2230  -17.6239 C   0  0  0  0  0  0  0  0  0  0  0  0
   -8.8278    4.2590  -16.2775 C   0  0  0  0  0  0  0  0  0  0  0  0
   -7.5049    4.5051  -15.8960 C   0  0  0  0  0  0  0  0  0  0  0  0
   -7.1336    4.5594  -14.5485 N   0  0  0  0  0  0  0  0  0  0  0  0
   -7.9283    4.5175  -13.3447 C   0  0  0  0  0  0  0  0  0  0  0  0
   -9.1167    4.5047  -13.1921 O   0  0  0  0  0  0  0  0  0  0  0  0
   -6.9796    4.5223  -12.1110 C   0  0  2  0  0  0  0  0  0  0  0  0
   -7.6931    4.3469  -10.7692 C   0  0  0  0  0  0  0  0  0  0  0  0
   -8.1578    2.9189  -10.4647 C   0  0  0  0  0  0  0  0  0  0  0  0
   -8.7882    2.8447   -9.0593 C   0  0  0  0  0  0  0  0  0  0  0  0
   -9.0935    1.4713   -8.7154 N   0  0  0  0  0  0  0  0  0  0  0  0
   -8.9692    3.8620   -8.4485 O   0  0  0  0  0  0  0  0  0  0  0  0
   -6.3163    5.8210  -12.1019 N   0  0  0  0  0  0  0  0  0  0  0  0
   -4.9556    6.1762  -12.3139 C   0  0  0  0  0  0  0  0  0  0  0  0
   -4.0161    5.5117  -12.6319 O   0  0  0  0  0  0  0  0  0  0  0  0
   -4.7094    7.6322  -12.0827 C   0  0  0  0  0  0  0  0  0  0  0  0
   -5.2059    8.2728  -10.9366 C   0  0  0  0  0  0  0  0  0  0  0  0
   -4.9589    9.6331  -10.7403 C   0  0  0  0  0  0  0  0  0  0  0  0
   -4.2129   10.3385  -11.6795 C   0  0  0  0  0  0  0  0  0  0  0  0
   -3.9771   11.6427  -11.4886 F   0  0  0  0  0  0  0  0  0  0  0  0
   -3.7021    9.7098  -12.8105 C   0  0  0  0  0  0  0  0  0  0  0  0
   -3.9458    8.3502  -13.0119 C   0  0  0  0  0  0  0  0  0  0  0  0
   -6.5010    4.7101  -16.8493 C   0  0  0  0  0  0  0  0  0  0  0  0
   -5.2232    4.9302  -16.4552 N   0  0  0  0  0  0  0  0  0  0  0  0
  1  2  1  0
  2  3  1  0
  3  4  2  0
  4  5  1  0
  5  6  2  0
  6  7  1  0
  7  8  2  0
  8  9  1  0
  9 10  2  0
 10 11  1  0
 11 12  1  0
 12 13  2  0
 12 14  1  0
 14 15  1  1
 15 16  1  0
 16 17  1  0
 17 18  1  0
 17 19  2  0
 14 20  1  0
 20 21  1  0
 21 22  2  0
 21 23  1  0
 23 24  2  0
 24 25  1  0
 25 26  2  0
 26 27  1  0
 26 28  1  0
 28 29  2  0
 10 30  1  0
 30 31  2  0
 31  3  1  0
 30  6  1  0
 29 23  1  0
M  END
>  <name>  (1069) 
P127592

>  <alias>  (1069) 
None

>  <smina_score_min>  (1069) 
-6.737

>  <exports>  (1069) 
['/opt/xchem-fragalysis-2/maxwin/BulkDock/OUTPUTS/openbind_xx01zvns2b_c2_elabs_1LOUTNY.sdf', '/opt/xchem-fragalysis-2/maxwin/BulkDock/OUTPUTS/openbind_xx01zvns2b_c2_elabs_1LSYIIV.sdf']

>  <tags>  (1069) 
syndirella_placed,openbind_xx01zvns2b_c2_elabs,openbind_xx01zvns2b_c2_elabs_scored_6.2plus,syndirella_product,openbind_xx01zvns2b_c2_elabs_scored,openbind_xx01zvns2b_c2_elabs_scored_top80percent,BulkDock Fragalysis export

>  <subsites>  (1069) 
1 - Z4590/B/203/1

>  <smiles>  (1069) 
COc1ccc2cccc(NC(=O)[C@H](CCC(N)=O)NC(=O)c3ccc(F)cc3)c2n1

>  <HIPPO Pose ID>  (1069) 
127592

>  <energy_score>  (1069) 
-145.448474

>  <inchikey>  (1069) 
WFFWPAHOLAHZEK-KRWDZBQOSA-N

>  <gnina_score_min>  (1069) 
6.298

>  <gnina_score>  (1069) 
6.025

>  <ref_mols>  (1069) 
Z1728a

>  <HIPPO Compound ID>  (1069) 
190050

>  <distance_score>  (1069) 
1.852713

>  <rmsd(smina/fragmenstein)>  (1069) 
1.603

>  <ref_pdb>  (1069) 
Z1728a

>  <inspiration_score>  (1069) 
None

$$$$
P127677
     RDKit          3D

 32 35  0  0  0  0  0  0  0  0999 V2000
   -3.3982    5.2262  -16.3972 C   0  0  0  0  0  0  0  0  0  0  0  0
   -4.7325    5.0700  -17.0573 C   0  0  0  0  0  0  0  0  0  0  0  0
   -4.8874    5.3278  -18.4013 C   0  0  0  0  0  0  0  0  0  0  0  0
   -6.1484    5.1626  -18.9508 C   0  0  0  0  0  0  0  0  0  0  0  0
   -7.2294    4.7578  -18.1567 C   0  0  0  0  0  0  0  0  0  0  0  0
   -8.5102    4.6044  -18.7119 C   0  0  0  0  0  0  0  0  0  0  0  0
   -9.5755    4.2121  -17.9210 C   0  0  0  0  0  0  0  0  0  0  0  0
   -9.3445    3.9122  -16.5873 C   0  0  0  0  0  0  0  0  0  0  0  0
   -8.0686    4.0212  -16.0162 C   0  0  0  0  0  0  0  0  0  0  0  0
   -7.9583    3.5221  -14.7001 N   0  0  0  0  0  0  0  0  0  0  0  0
   -6.7635    3.5790  -13.6876 C   0  0  0  0  0  0  0  0  0  0  0  0
   -5.7235    4.1158  -13.7689 O   0  0  0  0  0  0  0  0  0  0  0  0
   -7.1431    2.7135  -12.4481 C   0  0  1  0  0  0  0  0  0  0  0  0
   -6.0106    1.8721  -12.1351 N   0  0  0  0  0  0  0  0  0  0  0  0
   -5.1456    2.4913  -11.2599 C   0  0  0  0  0  0  0  0  0  0  0  0
   -4.0298    2.1076  -10.9605 O   0  0  0  0  0  0  0  0  0  0  0  0
   -5.8043    3.7360  -10.7383 C   0  0  0  0  0  0  0  0  0  0  0  0
   -7.2810    3.5474  -11.1574 C   0  0  0  0  0  0  0  0  0  0  0  0
   -8.0698    2.7596  -10.0840 C   0  0  0  0  0  0  0  0  0  0  0  0
   -8.3659    3.5418   -8.8019 C   0  0  0  0  0  0  0  0  0  0  0  0
   -8.0986    4.9687   -8.8409 N   0  0  0  0  0  0  0  0  0  0  0  0
   -7.9618    5.6461   -7.6530 C   0  0  0  0  0  0  0  0  0  0  0  0
   -8.8908    6.1692   -7.0554 O   0  0  0  0  0  0  0  0  0  0  0  0
   -6.6547    5.7000   -7.2963 O   0  0  0  0  0  0  0  0  0  0  0  0
   -6.2472    6.3814   -6.0864 C   0  0  0  0  0  0  0  0  0  0  0  0
   -6.6007    7.8725   -6.1285 C   0  0  0  0  0  0  0  0  0  0  0  0
   -4.7169    6.2458   -6.0626 C   0  0  0  0  0  0  0  0  0  0  0  0
   -6.8214    5.6885   -4.8461 C   0  0  0  0  0  0  0  0  0  0  0  0
   -7.9690    5.7133  -10.0719 C   0  0  0  0  0  0  0  0  0  0  0  0
   -8.0119    4.8705  -11.3379 C   0  0  0  0  0  0  0  0  0  0  0  0
   -6.9943    4.4959  -16.7894 C   0  0  0  0  0  0  0  0  0  0  0  0
   -5.7596    4.6698  -16.2816 N   0  0  0  0  0  0  0  0  0  0  0  0
  1  2  1  0
  2  3  2  0
  3  4  1  0
  4  5  2  0
  5  6  1  0
  6  7  2  0
  7  8  1  0
  8  9  2  0
  9 10  1  0
 10 11  1  0
 11 12  2  0
 13 11  1  6
 13 14  1  0
 14 15  1  0
 15 16  2  0
 15 17  1  0
 17 18  1  0
 18 19  1  0
 19 20  1  0
 20 21  1  0
 21 22  1  0
 22 23  2  0
 22 24  1  0
 24 25  1  0
 25 26  1  0
 25 27  1  0
 25 28  1  0
 21 29  1  0
 29 30  1  0
  9 31  1  0
 31 32  2  0
 32  2  1  0
 31  5  1  0
 18 13  1  0
 30 18  1  0
M  END
>  <name>  (1070) 
P127677

>  <alias>  (1070) 
None

>  <smina_score_min>  (1070) 
-9.03

>  <exports>  (1070) 
['/opt/xchem-fragalysis-2/maxwin/BulkDock/OUTPUTS/openbind_xx01zvns2b_c2_elabs_1LOUTNY.sdf', '/opt/xchem-fragalysis-2/maxwin/BulkDock/OUTPUTS/openbind_xx01zvns2b_c2_elabs_1LSYIIV.sdf']

>  <tags>  (1070) 
syndirella_placed,openbind_xx01zvns2b_c2_elabs,openbind_xx01zvns2b_c2_elabs_scored_6.2plus,syndirella_product,openbind_xx01zvns2b_c2_elabs_scored,openbind_xx01zvns2b_c2_elabs_scored_top80percent,BulkDock Fragalysis export

>  <subsites>  (1070) 
1 - Z4590/B/203/1

>  <smiles>  (1070) 
Cc1ccc2cccc(NC(=O)[C@H]3NC(=O)CC34CCN(C(=O)OC(C)(C)C)CC4)c2n1

>  <HIPPO Pose ID>  (1070) 
127677

>  <energy_score>  (1070) 
-20.199605

>  <inchikey>  (1070) 
XIONPPSYILJJTF-HXUWFJFHSA-N

>  <gnina_score_min>  (1070) 
6.321

>  <gnina_score>  (1070) 
6.379

>  <ref_mols>  (1070) 
Z1728a

>  <HIPPO Compound ID>  (1070) 
190217

>  <distance_score>  (1070) 
1.527078

>  <rmsd(smina/fragmenstein)>  (1070) 
0.798

>  <ref_pdb>  (1070) 
Z1728a

>  <inspiration_score>  (1070) 
None

$$$$
P127899
     RDKit          3D

 27 30  0  0  0  0  0  0  0  0999 V2000
   -5.4308    3.4826  -13.6298 O   0  0  0  0  0  0  0  0  0  0  0  0
   -6.5858    3.4552  -13.4452 C   0  0  0  0  0  0  0  0  0  0  0  0
   -7.7733    3.7741  -14.4104 N   0  0  0  0  0  0  0  0  0  0  0  0
   -7.7762    4.0870  -15.7739 C   0  0  0  0  0  0  0  0  0  0  0  0
   -9.0499    3.9986  -16.3442 C   0  0  0  0  0  0  0  0  0  0  0  0
   -9.2265    4.1873  -17.6968 C   0  0  0  0  0  0  0  0  0  0  0  0
  -10.8093    4.2187  -18.3255 Cl  0  0  0  0  0  0  0  0  0  0  0  0
   -8.1385    4.4370  -18.5068 C   0  0  0  0  0  0  0  0  0  0  0  0
   -6.8713    4.6170  -17.9409 C   0  0  0  0  0  0  0  0  0  0  0  0
   -5.7903    4.9670  -18.7590 C   0  0  0  0  0  0  0  0  0  0  0  0
   -4.5455    5.1968  -18.1965 C   0  0  0  0  0  0  0  0  0  0  0  0
   -4.4314    5.0766  -16.8293 C   0  0  0  0  0  0  0  0  0  0  0  0
   -5.4547    4.7407  -16.0177 N   0  0  0  0  0  0  0  0  0  0  0  0
   -6.6663    4.4736  -16.5469 C   0  0  0  0  0  0  0  0  0  0  0  0
   -7.2576    3.1809  -12.1003 C   0  0  0  0  0  0  0  0  0  0  0  0
   -7.9954    4.4633  -11.6605 C   0  0  0  0  0  0  0  0  0  0  0  0
   -7.9735    4.6916  -10.1610 C   0  0  0  0  0  0  0  0  0  0  0  0
   -8.0862    3.3936   -9.5235 N   0  0  0  0  0  0  0  0  0  0  0  0
   -8.5507    3.4763   -8.1990 C   0  0  0  0  0  0  0  0  0  0  0  0
   -9.1029    2.3530   -7.5907 C   0  0  0  0  0  0  0  0  0  0  0  0
   -9.6343    2.4557   -6.3089 C   0  0  0  0  0  0  0  0  0  0  0  0
   -9.5673    3.6813   -5.6884 C   0  0  0  0  0  0  0  0  0  0  0  0
  -10.1691    3.9575   -4.1133 Cl  0  0  0  0  0  0  0  0  0  0  0  0
   -9.0352    4.7721   -6.2691 N   0  0  0  0  0  0  0  0  0  0  0  0
   -8.5339    4.6629   -7.5353 N   0  0  0  0  0  0  0  0  0  0  0  0
   -6.8860    2.5553   -9.6666 C   0  0  0  0  0  0  0  0  0  0  0  0
   -6.2518    2.7157  -11.0529 C   0  0  0  0  0  0  0  0  0  0  0  0
  1  2  2  0
  2  3  1  0
  3  4  1  0
  4  5  2  0
  5  6  1  0
  6  7  1  0
  6  8  2  0
  8  9  1  0
  9 10  2  0
 10 11  1  0
 11 12  2  0
 12 13  1  0
 13 14  2  0
  2 15  1  0
 15 16  1  0
 16 17  1  0
 17 18  1  0
 18 19  1  0
 19 20  2  0
 20 21  1  0
 21 22  2  0
 22 23  1  0
 22 24  1  0
 24 25  2  0
 18 26  1  0
 26 27  1  0
 14  4  1  0
 27 15  1  0
 14  9  1  0
 25 19  1  0
M  END
>  <name>  (1071) 
P127899

>  <alias>  (1071) 
None

>  <smina_score_min>  (1071) 
-9.432

>  <exports>  (1071) 
['/opt/xchem-fragalysis-2/maxwin/BulkDock/OUTPUTS/openbind_xx01zvns2b_c2_elabs_1LOUTNY.sdf', '/opt/xchem-fragalysis-2/maxwin/BulkDock/OUTPUTS/openbind_xx01zvns2b_c2_elabs_1LSYIIV.sdf']

>  <tags>  (1071) 
syndirella_placed,openbind_xx01zvns2b_c2_elabs,openbind_xx01zvns2b_c2_elabs_scored_6.2plus,syndirella_product,openbind_xx01zvns2b_c2_elabs_scored,openbind_xx01zvns2b_c2_elabs_scored_top80percent,BulkDock Fragalysis export

>  <subsites>  (1071) 
1 - Z4590/B/203/1

>  <smiles>  (1071) 
O=C(Nc1cc(Cl)cc2cccnc12)C1CCN(c2ccc(Cl)nn2)CC1

>  <HIPPO Pose ID>  (1071) 
127899

>  <energy_score>  (1071) 
-21.878839

>  <inchikey>  (1071) 
MMXWFDTYQIBFSY-UHFFFAOYSA-N

>  <gnina_score_min>  (1071) 
6.221

>  <gnina_score>  (1071) 
6.084

>  <ref_mols>  (1071) 
Z1729a

>  <HIPPO Compound ID>  (1071) 
190550

>  <distance_score>  (1071) 
0.652888

>  <rmsd(smina/fragmenstein)>  (1071) 
0.416

>  <ref_pdb>  (1071) 
Z1729a

>  <inspiration_score>  (1071) 
None

$$$$
P128342
     RDKit          3D

 34 39  0  0  0  0  0  0  0  0999 V2000
   -7.4470    5.1960   -2.9918 C   0  0  0  0  0  0  0  0  0  0  0  0
   -8.3086    4.6240   -4.0076 N   0  0  0  0  0  0  0  0  0  0  0  0
   -9.4503    5.3487   -4.3150 C   0  0  0  0  0  0  0  0  0  0  0  0
   -9.7699    6.3922   -3.7408 O   0  0  0  0  0  0  0  0  0  0  0  0
  -10.2914    4.8300   -5.4475 C   0  0  0  0  0  0  0  0  0  0  0  0
  -10.1390    3.3377   -5.6128 C   0  0  0  0  0  0  0  0  0  0  0  0
   -8.6875    3.0225   -5.9248 C   0  0  1  0  0  0  0  0  0  0  0  0
   -8.3340    3.3912   -7.2833 N   0  0  0  0  0  0  0  0  0  0  0  0
   -8.6760    2.5584   -8.4456 C   0  0  0  0  0  0  0  0  0  0  0  0
   -8.3630    3.4763   -9.5855 C   0  0  0  0  0  0  0  0  0  0  0  0
   -8.4013    3.2810  -10.9573 C   0  0  0  0  0  0  0  0  0  0  0  0
   -8.0355    4.3612  -11.7747 C   0  0  0  0  0  0  0  0  0  0  0  0
   -7.9591    4.2237  -13.1545 N   0  0  0  0  0  0  0  0  0  0  0  0
   -7.4525    5.2056  -14.2342 C   0  0  0  0  0  0  0  0  0  0  0  0
   -6.9483    6.2546  -14.1275 O   0  0  0  0  0  0  0  0  0  0  0  0
   -7.6122    4.6858  -15.6084 C   0  0  0  0  0  0  0  0  0  0  0  0
   -8.7964    4.0976  -16.0654 C   0  0  0  0  0  0  0  0  0  0  0  0
   -8.9604    3.8102  -17.4203 C   0  0  0  0  0  0  0  0  0  0  0  0
   -7.9511    4.1061  -18.3479 C   0  0  0  0  0  0  0  0  0  0  0  0
   -6.7463    4.6808  -17.9057 C   0  0  0  0  0  0  0  0  0  0  0  0
   -5.5624    5.1281  -18.5140 C   0  0  0  0  0  0  0  0  0  0  0  0
   -4.7151    5.5653  -17.5365 C   0  0  0  0  0  0  0  0  0  0  0  0
   -5.3288    5.4930  -16.3377 N   0  0  0  0  0  0  0  0  0  0  0  0
   -6.5913    4.9432  -16.5368 C   0  0  0  0  0  0  0  0  0  0  0  0
   -3.3929    6.0111  -18.0019 C   0  0  0  0  0  0  0  0  0  0  0  0
   -3.4350    5.4872  -19.4787 C   0  0  0  0  0  0  0  0  0  0  0  0
   -4.9453    5.2631  -19.8485 C   0  0  0  0  0  0  0  0  0  0  0  0
   -7.6908    5.6117  -11.2200 C   0  0  0  0  0  0  0  0  0  0  0  0
   -7.6627    5.8056   -9.8519 C   0  0  0  0  0  0  0  0  0  0  0  0
   -7.9798    4.7183   -9.0787 C   0  0  0  0  0  0  0  0  0  0  0  0
   -7.9735    4.6686   -7.6321 C   0  0  0  0  0  0  0  0  0  0  0  0
   -7.7164    5.6158   -6.9128 O   0  0  0  0  0  0  0  0  0  0  0  0
   -7.7425    3.6632   -4.8552 C   0  0  0  0  0  0  0  0  0  0  0  0
   -6.5278    3.4364   -4.7998 O   0  0  0  0  0  0  0  0  0  0  0  0
  1  2  1  0
  2  3  1  0
  3  4  2  0
  3  5  1  0
  5  6  1  0
  6  7  1  0
  7  8  1  6
  8  9  1  0
  9 10  1  0
 10 11  2  0
 11 12  1  0
 12 13  1  0
 13 14  1  0
 14 15  2  0
 14 16  1  0
 16 17  2  0
 17 18  1  0
 18 19  2  0
 19 20  1  0
 20 21  1  0
 21 22  2  0
 22 23  1  0
 23 24  1  0
 22 25  1  0
 25 26  1  0
 26 27  1  0
 12 28  2  0
 28 29  1  0
 29 30  2  0
 30 31  1  0
 31 32  2  0
  7 33  1  0
 33 34  2  0
 33  2  1  0
 31  8  1  0
 30 10  1  0
 24 16  1  0
 24 20  2  0
 27 21  1  0
M  END
>  <name>  (1072) 
P128342

>  <alias>  (1072) 
None

>  <smina_score_min>  (1072) 
-10.762

>  <exports>  (1072) 
['/opt/xchem-fragalysis-2/maxwin/BulkDock/OUTPUTS/openbind_xx01zvns2b_c2_elabs_1LOUTNY.sdf', '/opt/xchem-fragalysis-2/maxwin/BulkDock/OUTPUTS/openbind_xx01zvns2b_c2_elabs_1LSYIIV.sdf']

>  <tags>  (1072) 
syndirella_placed,openbind_xx01zvns2b_c2_elabs,openbind_xx01zvns2b_c2_elabs_scored_6.2plus,syndirella_product,openbind_xx01zvns2b_c2_elabs_scored,openbind_xx01zvns2b_c2_elabs_scored_top80percent,BulkDock Fragalysis export

>  <subsites>  (1072) 
1 - Z4590/B/203/1

>  <smiles>  (1072) 
CN1C(=O)CC[C@@H](N2Cc3cc(NC(=O)c4cccc5c6c([nH]c45)CCC6)ccc3C2=O)C1=O

>  <HIPPO Pose ID>  (1072) 
128342

>  <energy_score>  (1072) 
-20.262222

>  <inchikey>  (1072) 
UZDFSRYZQYAPED-OAQYLSRUSA-N

>  <gnina_score_min>  (1072) 
6.233

>  <gnina_score>  (1072) 
6.116

>  <ref_mols>  (1072) 
Z3792a

>  <HIPPO Compound ID>  (1072) 
183018

>  <distance_score>  (1072) 
0.738328

>  <rmsd(smina/fragmenstein)>  (1072) 
0.434

>  <ref_pdb>  (1072) 
Z3792a

>  <inspiration_score>  (1072) 
None

$$$$
P134363
     RDKit          3D

 27 30  0  0  0  0  0  0  0  0999 V2000
   -2.8559    5.7356  -17.3448 C   0  0  0  0  0  0  0  0  0  0  0  0
   -4.2961    5.4820  -17.1272 C   0  0  0  0  0  0  0  0  0  0  0  0
   -4.9383    5.5528  -15.9806 N   0  0  0  0  0  0  0  0  0  0  0  0
   -6.2444    5.2173  -16.2566 C   0  0  0  0  0  0  0  0  0  0  0  0
   -7.3776    5.1147  -15.4345 C   0  0  0  0  0  0  0  0  0  0  0  0
   -7.3224    5.5428  -14.0280 C   0  0  0  0  0  0  0  0  0  0  0  0
   -7.1102    6.6664  -13.7892 O   0  0  0  0  0  0  0  0  0  0  0  0
   -7.6633    4.3640  -13.0851 N   0  0  0  0  0  0  0  0  0  0  0  0
   -7.8988    4.3424  -11.7124 C   0  0  0  0  0  0  0  0  0  0  0  0
   -7.7179    5.4965  -10.9305 C   0  0  0  0  0  0  0  0  0  0  0  0
   -7.9656    5.4810   -9.5553 C   0  0  0  0  0  0  0  0  0  0  0  0
   -8.4060    4.3012   -8.9920 C   0  0  0  0  0  0  0  0  0  0  0  0
   -8.5874    3.1520   -9.7653 C   0  0  0  0  0  0  0  0  0  0  0  0
   -8.3288    3.1502  -11.1240 C   0  0  0  0  0  0  0  0  0  0  0  0
   -9.0784    2.0481   -8.8816 C   0  0  0  0  0  0  0  0  0  0  0  0
   -9.5775    2.7716   -7.6992 N   0  0  0  0  0  0  0  0  0  0  0  0
   -9.6478    1.9523   -6.4925 C   0  0  0  0  0  0  0  0  0  0  0  0
  -10.2071    2.6807   -5.2639 C   0  0  0  0  0  0  0  0  0  0  0  0
   -9.2896    3.5505   -4.7547 F   0  0  0  0  0  0  0  0  0  0  0  0
  -11.2890    3.4345   -5.5943 F   0  0  0  0  0  0  0  0  0  0  0  0
   -8.7685    3.9932   -7.5742 C   0  0  0  0  0  0  0  0  0  0  0  0
   -8.6039    4.7133  -15.9829 C   0  0  0  0  0  0  0  0  0  0  0  0
   -8.7009    4.4524  -17.3464 C   0  0  0  0  0  0  0  0  0  0  0  0
  -10.2318    4.0786  -18.0219 Cl  0  0  0  0  0  0  0  0  0  0  0  0
   -7.5975    4.5514  -18.1945 C   0  0  0  0  0  0  0  0  0  0  0  0
   -6.3900    4.9356  -17.6117 C   0  0  0  0  0  0  0  0  0  0  0  0
   -5.1448    5.1338  -18.1478 N   0  0  0  0  0  0  0  0  0  0  0  0
  1  2  1  0
  2  3  2  0
  3  4  1  0
  4  5  2  0
  5  6  1  0
  6  7  2  0
  6  8  1  0
  8  9  1  0
  9 10  2  0
 10 11  1  0
 11 12  2  0
 12 13  1  0
 13 14  2  0
 13 15  1  0
 15 16  1  0
 16 17  1  0
 17 18  1  0
 18 19  1  0
 18 20  1  0
 16 21  1  0
  5 22  1  0
 22 23  2  0
 23 24  1  0
 23 25  1  0
 25 26  2  0
 26 27  1  0
 27  2  1  0
 26  4  1  0
 14  9  1  0
 21 12  1  0
M  END
>  <name>  (1073) 
P134363

>  <alias>  (1073) 
None

>  <smina_score_min>  (1073) 
-8.923

>  <exports>  (1073) 
['/opt/xchem-fragalysis-2/maxwin/BulkDock/OUTPUTS/openbind_xx01zvns2b_c2_elabs_1LOUTNY.sdf', '/opt/xchem-fragalysis-2/maxwin/BulkDock/OUTPUTS/openbind_xx01zvns2b_c2_elabs_1LSYIIV.sdf']

>  <tags>  (1073) 
syndirella_placed,openbind_xx01zvns2b_c2_elabs,openbind_xx01zvns2b_c2_elabs_scored_6.2plus,syndirella_product,openbind_xx01zvns2b_c2_elabs_scored,openbind_xx01zvns2b_c1_elabs_filtered,openbind_xx01zvns2b_c2_elabs_scored_top80percent,BulkDock Fragalysis export

>  <subsites>  (1073) 
1 - Z4590/B/203/1

>  <smiles>  (1073) 
Cc1nc2c(C(=O)Nc3ccc4c(c3)CN(CC(F)F)C4)cc(Cl)cc2[nH]1

>  <HIPPO Pose ID>  (1073) 
134363

>  <energy_score>  (1073) 
-24.503637

>  <inchikey>  (1073) 
CCMPVUAVUMLJQF-UHFFFAOYSA-N

>  <gnina_score_min>  (1073) 
6.208

>  <gnina_score>  (1073) 
6.082

>  <ref_mols>  (1073) 
Z3502a

>  <HIPPO Compound ID>  (1073) 
190900

>  <distance_score>  (1073) 
0.532329

>  <rmsd(smina/fragmenstein)>  (1073) 
0.461

>  <ref_pdb>  (1073) 
Z3502a

>  <inspiration_score>  (1073) 
None

$$$$
P134365
     RDKit          3D

 28 31  0  0  0  0  0  0  0  0999 V2000
   -2.8808    5.7217  -17.3917 C   0  0  0  0  0  0  0  0  0  0  0  0
   -4.3241    5.4670  -17.1967 C   0  0  0  0  0  0  0  0  0  0  0  0
   -4.9902    5.5835  -16.0687 N   0  0  0  0  0  0  0  0  0  0  0  0
   -6.2859    5.2220  -16.3571 C   0  0  0  0  0  0  0  0  0  0  0  0
   -7.4382    5.1653  -15.5620 C   0  0  0  0  0  0  0  0  0  0  0  0
   -7.4589    5.7920  -14.2415 C   0  0  0  0  0  0  0  0  0  0  0  0
   -7.2602    6.9411  -14.1817 O   0  0  0  0  0  0  0  0  0  0  0  0
   -7.8537    4.7851  -13.1381 N   0  0  0  0  0  0  0  0  0  0  0  0
   -7.9886    4.9568  -11.7681 C   0  0  0  0  0  0  0  0  0  0  0  0
   -7.8595    6.2532  -11.2345 C   0  0  0  0  0  0  0  0  0  0  0  0
   -7.9748    6.4922   -9.8725 C   0  0  0  0  0  0  0  0  0  0  0  0
   -8.1903    5.4076   -9.0615 C   0  0  0  0  0  0  0  0  0  0  0  0
   -8.3234    4.1134   -9.5808 C   0  0  0  0  0  0  0  0  0  0  0  0
   -8.2509    3.8643  -10.9404 C   0  0  0  0  0  0  0  0  0  0  0  0
   -8.5655    3.1843   -8.4334 C   0  0  0  0  0  0  0  0  0  0  0  0
   -8.1050    3.9720   -7.2821 N   0  0  0  0  0  0  0  0  0  0  0  0
   -8.3522    3.5591   -5.9301 C   0  0  0  0  0  0  0  0  0  0  0  0
   -9.7794    3.5309   -5.4292 C   0  0  0  0  0  0  0  0  0  0  0  0
  -10.7366    2.5034   -6.0488 C   0  0  0  0  0  0  0  0  0  0  0  0
  -11.7034    2.0972   -4.9677 C   0  0  0  0  0  0  0  0  0  0  0  0
  -10.1437    1.2267   -6.6392 C   0  0  0  0  0  0  0  0  0  0  0  0
   -8.2962    5.3779   -7.5767 C   0  0  0  0  0  0  0  0  0  0  0  0
   -8.6502    4.7276  -16.1045 C   0  0  0  0  0  0  0  0  0  0  0  0
   -8.7215    4.4083  -17.4533 C   0  0  0  0  0  0  0  0  0  0  0  0
  -10.2517    4.0427  -18.1257 Cl  0  0  0  0  0  0  0  0  0  0  0  0
   -7.6031    4.4698  -18.2862 C   0  0  0  0  0  0  0  0  0  0  0  0
   -6.4045    4.8784  -17.6992 C   0  0  0  0  0  0  0  0  0  0  0  0
   -5.1524    5.0745  -18.2183 N   0  0  0  0  0  0  0  0  0  0  0  0
  1  2  1  0
  2  3  2  0
  3  4  1  0
  4  5  2  0
  5  6  1  0
  6  7  2  0
  6  8  1  0
  8  9  1  0
  9 10  2  0
 10 11  1  0
 11 12  2  0
 12 13  1  0
 13 14  2  0
 13 15  1  0
 15 16  1  0
 16 17  1  0
 17 18  1  0
 18 19  1  0
 19 20  1  0
 19 21  1  0
 16 22  1  0
  5 23  1  0
 23 24  2  0
 24 25  1  0
 24 26  1  0
 26 27  2  0
 27 28  1  0
 28  2  1  0
 27  4  1  0
 14  9  1  0
 22 12  1  0
M  END
>  <name>  (1074) 
P134365

>  <alias>  (1074) 
None

>  <smina_score_min>  (1074) 
-7.993

>  <exports>  (1074) 
['/opt/xchem-fragalysis-2/maxwin/BulkDock/OUTPUTS/openbind_xx01zvns2b_c2_elabs_1LOUTNY.sdf', '/opt/xchem-fragalysis-2/maxwin/BulkDock/OUTPUTS/openbind_xx01zvns2b_c2_elabs_1LSYIIV.sdf']

>  <tags>  (1074) 
syndirella_placed,openbind_xx01zvns2b_c2_elabs,openbind_xx01zvns2b_c2_elabs_scored_6.2plus,syndirella_product,openbind_xx01zvns2b_c2_elabs_scored,openbind_xx01zvns2b_c1_elabs_filtered,openbind_xx01zvns2b_c2_elabs_scored_top80percent,BulkDock Fragalysis export

>  <subsites>  (1074) 
1 - Z4590/B/203/1

>  <smiles>  (1074) 
Cc1nc2c(C(=O)Nc3ccc4c(c3)CN(CCC(C)C)C4)cc(Cl)cc2[nH]1

>  <HIPPO Pose ID>  (1074) 
134365

>  <energy_score>  (1074) 
-6.756657

>  <inchikey>  (1074) 
QGUJBSDLGICARP-UHFFFAOYSA-N

>  <gnina_score_min>  (1074) 
6.258

>  <gnina_score>  (1074) 
6.04

>  <ref_mols>  (1074) 
Z3502a

>  <HIPPO Compound ID>  (1074) 
190902

>  <distance_score>  (1074) 
1.025294

>  <rmsd(smina/fragmenstein)>  (1074) 
0.679

>  <ref_pdb>  (1074) 
Z3502a

>  <inspiration_score>  (1074) 
None

$$$$
P134366
     RDKit          3D

 28 31  0  0  0  0  0  0  0  0999 V2000
  -11.6547    2.3299   -5.8839 C   0  0  0  0  0  0  0  0  0  0  0  0
  -10.8137    2.6957   -4.7052 C   0  0  0  0  0  0  0  0  0  0  0  0
   -9.5953    3.5292   -5.0157 C   0  0  0  0  0  0  0  0  0  0  0  0
   -8.6885    2.8554   -6.0359 C   0  0  0  0  0  0  0  0  0  0  0  0
   -8.8419    3.4111   -7.3568 N   0  0  0  0  0  0  0  0  0  0  0  0
   -8.8812    2.5813   -8.5662 C   0  0  0  0  0  0  0  0  0  0  0  0
   -8.5541    3.5750   -9.6389 C   0  0  0  0  0  0  0  0  0  0  0  0
   -8.4528    3.4391  -11.0160 C   0  0  0  0  0  0  0  0  0  0  0  0
   -8.0835    4.5737  -11.7589 C   0  0  0  0  0  0  0  0  0  0  0  0
   -7.9436    4.5065  -13.1414 N   0  0  0  0  0  0  0  0  0  0  0  0
   -7.4072    5.5538  -14.1509 C   0  0  0  0  0  0  0  0  0  0  0  0
   -7.0723    6.6616  -13.9870 O   0  0  0  0  0  0  0  0  0  0  0  0
   -7.4364    5.0456  -15.5259 C   0  0  0  0  0  0  0  0  0  0  0  0
   -8.6622    4.6528  -16.0741 C   0  0  0  0  0  0  0  0  0  0  0  0
   -8.7575    4.3982  -17.4361 C   0  0  0  0  0  0  0  0  0  0  0  0
  -10.2991    4.0716  -18.1041 Cl  0  0  0  0  0  0  0  0  0  0  0  0
   -7.6512    4.4841  -18.2818 C   0  0  0  0  0  0  0  0  0  0  0  0
   -6.4418    4.8627  -17.6984 C   0  0  0  0  0  0  0  0  0  0  0  0
   -5.1971    5.0711  -18.2329 N   0  0  0  0  0  0  0  0  0  0  0  0
   -4.3509    5.4213  -17.2100 C   0  0  0  0  0  0  0  0  0  0  0  0
   -2.9134    5.6928  -17.4246 C   0  0  0  0  0  0  0  0  0  0  0  0
   -4.9935    5.4786  -16.0631 N   0  0  0  0  0  0  0  0  0  0  0  0
   -6.2986    5.1414  -16.3433 C   0  0  0  0  0  0  0  0  0  0  0  0
   -7.8446    5.8098  -11.1262 C   0  0  0  0  0  0  0  0  0  0  0  0
   -7.9446    5.9410   -9.7516 C   0  0  0  0  0  0  0  0  0  0  0  0
   -8.2920    4.8122   -9.0504 C   0  0  0  0  0  0  0  0  0  0  0  0
   -8.4029    4.6931   -7.6083 C   0  0  0  0  0  0  0  0  0  0  0  0
   -8.1064    5.5771   -6.8239 O   0  0  0  0  0  0  0  0  0  0  0  0
  1  2  1  0
  2  3  1  0
  3  4  1  0
  4  5  1  0
  5  6  1  0
  6  7  1  0
  7  8  2  0
  8  9  1  0
  9 10  1  0
 10 11  1  0
 11 12  2  0
 11 13  1  0
 13 14  2  0
 14 15  1  0
 15 16  1  0
 15 17  2  0
 17 18  1  0
 18 19  1  0
 19 20  1  0
 20 21  1  0
 20 22  2  0
 22 23  1  0
  9 24  2  0
 24 25  1  0
 25 26  2  0
 26 27  1  0
 27 28  2  0
 27  5  1  0
 26  7  1  0
 23 13  1  0
 23 18  2  0
M  END
>  <name>  (1075) 
P134366

>  <alias>  (1075) 
None

>  <smina_score_min>  (1075) 
-7.977

>  <exports>  (1075) 
['/opt/xchem-fragalysis-2/maxwin/BulkDock/OUTPUTS/openbind_xx01zvns2b_c2_elabs_1LOUTNY.sdf', '/opt/xchem-fragalysis-2/maxwin/BulkDock/OUTPUTS/openbind_xx01zvns2b_c2_elabs_1LSYIIV.sdf']

>  <tags>  (1075) 
syndirella_placed,openbind_xx01zvns2b_c2_elabs,openbind_xx01zvns2b_c2_elabs_scored_6.2plus,syndirella_product,openbind_xx01zvns2b_c2_elabs_scored,openbind_xx01zvns2b_c1_elabs_filtered,openbind_xx01zvns2b_c2_elabs_scored_top80percent,BulkDock Fragalysis export

>  <subsites>  (1075) 
1 - Z4590/B/203/1

>  <smiles>  (1075) 
CCCCN1Cc2cc(NC(=O)c3cc(Cl)cc4[nH]c(C)nc34)ccc2C1=O

>  <HIPPO Pose ID>  (1075) 
134366

>  <energy_score>  (1075) 
-0.880396

>  <inchikey>  (1075) 
SJMASESTFJXFDK-UHFFFAOYSA-N

>  <gnina_score_min>  (1075) 
6.213

>  <gnina_score>  (1075) 
6.058

>  <ref_mols>  (1075) 
Z3502a

>  <HIPPO Compound ID>  (1075) 
190903

>  <distance_score>  (1075) 
0.67728

>  <rmsd(smina/fragmenstein)>  (1075) 
0.852

>  <ref_pdb>  (1075) 
Z3502a

>  <inspiration_score>  (1075) 
None

$$$$
P134372
     RDKit          3D

 28 31  0  0  0  0  0  0  0  0999 V2000
  -11.7873    2.2123   -5.6592 C   0  0  0  0  0  0  0  0  0  0  0  0
  -11.0065    2.6724   -4.5791 O   0  0  0  0  0  0  0  0  0  0  0  0
   -9.8368    3.3741   -4.9875 C   0  0  0  0  0  0  0  0  0  0  0  0
   -8.9587    2.6226   -6.0016 C   0  0  0  0  0  0  0  0  0  0  0  0
   -9.0069    3.2084   -7.3272 N   0  0  0  0  0  0  0  0  0  0  0  0
   -8.9714    2.4003   -8.5500 C   0  0  0  0  0  0  0  0  0  0  0  0
   -8.6007    3.4143   -9.5909 C   0  0  0  0  0  0  0  0  0  0  0  0
   -8.4765    3.3115  -10.9706 C   0  0  0  0  0  0  0  0  0  0  0  0
   -8.0842    4.4575  -11.6853 C   0  0  0  0  0  0  0  0  0  0  0  0
   -7.9468    4.4197  -13.0721 N   0  0  0  0  0  0  0  0  0  0  0  0
   -7.4071    5.4874  -14.0605 C   0  0  0  0  0  0  0  0  0  0  0  0
   -7.0669    6.5903  -13.8731 O   0  0  0  0  0  0  0  0  0  0  0  0
   -7.4399    5.0118  -15.4514 C   0  0  0  0  0  0  0  0  0  0  0  0
   -8.6653    4.6276  -16.0104 C   0  0  0  0  0  0  0  0  0  0  0  0
   -8.7618    4.3997  -17.3788 C   0  0  0  0  0  0  0  0  0  0  0  0
  -10.2996    4.0771  -18.0603 Cl  0  0  0  0  0  0  0  0  0  0  0  0
   -7.6574    4.5071  -18.2236 C   0  0  0  0  0  0  0  0  0  0  0  0
   -6.4497    4.8773  -17.6332 C   0  0  0  0  0  0  0  0  0  0  0  0
   -5.2073    5.0981  -18.1676 N   0  0  0  0  0  0  0  0  0  0  0  0
   -4.3598    5.4345  -17.1419 C   0  0  0  0  0  0  0  0  0  0  0  0
   -2.9248    5.7183  -17.3580 C   0  0  0  0  0  0  0  0  0  0  0  0
   -4.9989    5.4669  -15.9919 N   0  0  0  0  0  0  0  0  0  0  0  0
   -6.3047    5.1296  -16.2725 C   0  0  0  0  0  0  0  0  0  0  0  0
   -7.8315    5.6716  -11.0167 C   0  0  0  0  0  0  0  0  0  0  0  0
   -7.9504    5.7693   -9.6378 C   0  0  0  0  0  0  0  0  0  0  0  0
   -8.3312    4.6314   -8.9663 C   0  0  0  0  0  0  0  0  0  0  0  0
   -8.5088    4.4803   -7.5305 C   0  0  0  0  0  0  0  0  0  0  0  0
   -8.2329    5.3355   -6.7078 O   0  0  0  0  0  0  0  0  0  0  0  0
  1  2  1  0
  2  3  1  0
  3  4  1  0
  4  5  1  0
  5  6  1  0
  6  7  1  0
  7  8  2  0
  8  9  1  0
  9 10  1  0
 10 11  1  0
 11 12  2  0
 11 13  1  0
 13 14  2  0
 14 15  1  0
 15 16  1  0
 15 17  2  0
 17 18  1  0
 18 19  1  0
 19 20  1  0
 20 21  1  0
 20 22  2  0
 22 23  1  0
  9 24  2  0
 24 25  1  0
 25 26  2  0
 26 27  1  0
 27 28  2  0
 27  5  1  0
 26  7  1  0
 23 13  1  0
 23 18  2  0
M  END
>  <name>  (1076) 
P134372

>  <alias>  (1076) 
None

>  <smina_score_min>  (1076) 
-7.838

>  <exports>  (1076) 
['/opt/xchem-fragalysis-2/maxwin/BulkDock/OUTPUTS/openbind_xx01zvns2b_c2_elabs_1LOUTNY.sdf', '/opt/xchem-fragalysis-2/maxwin/BulkDock/OUTPUTS/openbind_xx01zvns2b_c2_elabs_1LSYIIV.sdf']

>  <tags>  (1076) 
syndirella_placed,openbind_xx01zvns2b_c2_elabs,openbind_xx01zvns2b_c2_elabs_scored_6.2plus,syndirella_product,openbind_xx01zvns2b_c2_elabs_scored,openbind_xx01zvns2b_c1_elabs_filtered,openbind_xx01zvns2b_c2_elabs_scored_top80percent,BulkDock Fragalysis export

>  <subsites>  (1076) 
1 - Z4590/B/203/1

>  <smiles>  (1076) 
COCCN1Cc2cc(NC(=O)c3cc(Cl)cc4[nH]c(C)nc34)ccc2C1=O

>  <HIPPO Pose ID>  (1076) 
134372

>  <energy_score>  (1076) 
-7.922135

>  <inchikey>  (1076) 
LGTHEODXKWQUJN-UHFFFAOYSA-N

>  <gnina_score_min>  (1076) 
6.3

>  <gnina_score>  (1076) 
5.975

>  <ref_mols>  (1076) 
Z3502a

>  <HIPPO Compound ID>  (1076) 
190908

>  <distance_score>  (1076) 
0.561892

>  <rmsd(smina/fragmenstein)>  (1076) 
0.833

>  <ref_pdb>  (1076) 
Z3502a

>  <inspiration_score>  (1076) 
None

$$$$
P134373
     RDKit          3D

 28 31  0  0  0  0  0  0  0  0999 V2000
   -8.9504    5.8459   -3.9518 C   0  0  0  0  0  0  0  0  0  0  0  0
   -9.8388    4.9813   -4.6436 O   0  0  0  0  0  0  0  0  0  0  0  0
   -9.4776    3.6066   -4.4742 C   0  0  0  0  0  0  0  0  0  0  0  0
  -10.3954    2.7164   -5.3119 C   0  0  0  0  0  0  0  0  0  0  0  0
   -9.6857    2.0099   -6.4775 C   0  0  0  0  0  0  0  0  0  0  0  0
   -9.5960    2.8301   -7.6704 N   0  0  0  0  0  0  0  0  0  0  0  0
   -8.7577    4.0328   -7.5694 C   0  0  0  0  0  0  0  0  0  0  0  0
   -8.3983    4.3228   -8.9905 C   0  0  0  0  0  0  0  0  0  0  0  0
   -7.9422    5.4929   -9.5611 C   0  0  0  0  0  0  0  0  0  0  0  0
   -7.7377    5.5077  -10.9417 C   0  0  0  0  0  0  0  0  0  0  0  0
   -7.9812    4.3631  -11.7197 C   0  0  0  0  0  0  0  0  0  0  0  0
   -7.8500    4.4008  -13.1039 N   0  0  0  0  0  0  0  0  0  0  0  0
   -7.4159    5.5532  -14.0415 C   0  0  0  0  0  0  0  0  0  0  0  0
   -7.1750    6.6715  -13.8053 O   0  0  0  0  0  0  0  0  0  0  0  0
   -7.4225    5.1098  -15.4435 C   0  0  0  0  0  0  0  0  0  0  0  0
   -8.6372    4.7042  -16.0144 C   0  0  0  0  0  0  0  0  0  0  0  0
   -8.7117    4.4427  -17.3775 C   0  0  0  0  0  0  0  0  0  0  0  0
  -10.2337    4.0715  -18.0705 Cl  0  0  0  0  0  0  0  0  0  0  0  0
   -7.5948    4.5436  -18.2059 C   0  0  0  0  0  0  0  0  0  0  0  0
   -6.3989    4.9326  -17.6019 C   0  0  0  0  0  0  0  0  0  0  0  0
   -5.1469    5.1369  -18.1177 N   0  0  0  0  0  0  0  0  0  0  0  0
   -4.3148    5.4891  -17.0855 C   0  0  0  0  0  0  0  0  0  0  0  0
   -2.8720    5.7477  -17.2796 C   0  0  0  0  0  0  0  0  0  0  0  0
   -4.9758    5.5605  -15.9499 N   0  0  0  0  0  0  0  0  0  0  0  0
   -6.2758    5.2167  -16.2447 C   0  0  0  0  0  0  0  0  0  0  0  0
   -8.4099    3.1752  -11.1210 C   0  0  0  0  0  0  0  0  0  0  0  0
   -8.6223    3.1773   -9.7554 C   0  0  0  0  0  0  0  0  0  0  0  0
   -9.1166    2.0888   -8.8553 C   0  0  0  0  0  0  0  0  0  0  0  0
  1  2  1  0
  2  3  1  0
  3  4  1  0
  4  5  1  0
  5  6  1  0
  6  7  1  0
  7  8  1  0
  8  9  2  0
  9 10  1  0
 10 11  2  0
 11 12  1  0
 12 13  1  0
 13 14  2  0
 13 15  1  0
 15 16  2  0
 16 17  1  0
 17 18  1  0
 17 19  2  0
 19 20  1  0
 20 21  1  0
 21 22  1  0
 22 23  1  0
 22 24  2  0
 24 25  1  0
 11 26  1  0
 26 27  2  0
 27 28  1  0
 28  6  1  0
 27  8  1  0
 25 15  1  0
 25 20  2  0
M  END
>  <name>  (1077) 
P134373

>  <alias>  (1077) 
None

>  <smina_score_min>  (1077) 
-8.277

>  <exports>  (1077) 
['/opt/xchem-fragalysis-2/maxwin/BulkDock/OUTPUTS/openbind_xx01zvns2b_c2_elabs_1LOUTNY.sdf', '/opt/xchem-fragalysis-2/maxwin/BulkDock/OUTPUTS/openbind_xx01zvns2b_c2_elabs_1LSYIIV.sdf']

>  <tags>  (1077) 
syndirella_placed,openbind_xx01zvns2b_c2_elabs,openbind_xx01zvns2b_c2_elabs_scored_6.2plus,syndirella_product,openbind_xx01zvns2b_c2_elabs_scored,openbind_xx01zvns2b_c1_elabs_filtered,openbind_xx01zvns2b_c2_elabs_scored_top80percent,BulkDock Fragalysis export

>  <subsites>  (1077) 
1 - Z4590/B/203/1

>  <smiles>  (1077) 
COCCCN1Cc2ccc(NC(=O)c3cc(Cl)cc4[nH]c(C)nc34)cc2C1

>  <HIPPO Pose ID>  (1077) 
134373

>  <energy_score>  (1077) 
-42.654716

>  <inchikey>  (1077) 
JBWYNRHYEAQJOV-UHFFFAOYSA-N

>  <gnina_score_min>  (1077) 
6.26

>  <gnina_score>  (1077) 
6.115

>  <ref_mols>  (1077) 
Z3502a

>  <HIPPO Compound ID>  (1077) 
190910

>  <distance_score>  (1077) 
0.520144

>  <rmsd(smina/fragmenstein)>  (1077) 
0.466

>  <ref_pdb>  (1077) 
Z3502a

>  <inspiration_score>  (1077) 
None

$$$$
P134374
     RDKit          3D

 29 32  0  0  0  0  0  0  0  0999 V2000
   -8.0081    4.6835   -1.7948 C   0  0  0  0  0  0  0  0  0  0  0  0
   -9.1745    5.2941   -2.5491 C   0  0  0  0  0  0  0  0  0  0  0  0
   -9.9234    4.3160   -3.2638 O   0  0  0  0  0  0  0  0  0  0  0  0
   -9.2736    3.8393   -4.4460 C   0  0  0  0  0  0  0  0  0  0  0  0
  -10.2301    2.9289   -5.2150 C   0  0  0  0  0  0  0  0  0  0  0  0
   -9.5904    2.1779   -6.3918 C   0  0  0  0  0  0  0  0  0  0  0  0
   -9.5367    2.9613   -7.6132 N   0  0  0  0  0  0  0  0  0  0  0  0
   -8.6804    4.1501   -7.5760 C   0  0  0  0  0  0  0  0  0  0  0  0
   -8.3615    4.3987   -9.0094 C   0  0  0  0  0  0  0  0  0  0  0  0
   -7.9094    5.5548   -9.6082 C   0  0  0  0  0  0  0  0  0  0  0  0
   -7.7377    5.5415  -10.9896 C   0  0  0  0  0  0  0  0  0  0  0  0
   -8.0019    4.3830  -11.7404 C   0  0  0  0  0  0  0  0  0  0  0  0
   -7.8701    4.4076  -13.1253 N   0  0  0  0  0  0  0  0  0  0  0  0
   -7.3385    5.5172  -14.0653 C   0  0  0  0  0  0  0  0  0  0  0  0
   -7.0008    6.6107  -13.8307 O   0  0  0  0  0  0  0  0  0  0  0  0
   -7.3839    5.0798  -15.4688 C   0  0  0  0  0  0  0  0  0  0  0  0
   -8.6092    4.6870  -16.0249 C   0  0  0  0  0  0  0  0  0  0  0  0
   -8.7021    4.4363  -17.3893 C   0  0  0  0  0  0  0  0  0  0  0  0
  -10.2343    4.0756  -18.0662 Cl  0  0  0  0  0  0  0  0  0  0  0  0
   -7.5955    4.5380  -18.2326 C   0  0  0  0  0  0  0  0  0  0  0  0
   -6.3891    4.9174  -17.6440 C   0  0  0  0  0  0  0  0  0  0  0  0
   -5.1428    5.1251  -18.1742 N   0  0  0  0  0  0  0  0  0  0  0  0
   -4.2964    5.4610  -17.1476 C   0  0  0  0  0  0  0  0  0  0  0  0
   -2.8557    5.7189  -17.3574 C   0  0  0  0  0  0  0  0  0  0  0  0
   -4.9418    5.5169  -16.0025 N   0  0  0  0  0  0  0  0  0  0  0  0
   -6.2476    5.1866  -16.2862 C   0  0  0  0  0  0  0  0  0  0  0  0
   -8.4354    3.2098  -11.1130 C   0  0  0  0  0  0  0  0  0  0  0  0
   -8.6216    3.2401   -9.7426 C   0  0  0  0  0  0  0  0  0  0  0  0
   -9.1142    2.1819   -8.8013 C   0  0  0  0  0  0  0  0  0  0  0  0
  1  2  1  0
  2  3  1  0
  3  4  1  0
  4  5  1  0
  5  6  1  0
  6  7  1  0
  7  8  1  0
  8  9  1  0
  9 10  2  0
 10 11  1  0
 11 12  2  0
 12 13  1  0
 13 14  1  0
 14 15  2  0
 14 16  1  0
 16 17  2  0
 17 18  1  0
 18 19  1  0
 18 20  2  0
 20 21  1  0
 21 22  1  0
 22 23  1  0
 23 24  1  0
 23 25  2  0
 25 26  1  0
 12 27  1  0
 27 28  2  0
 28 29  1  0
 29  7  1  0
 28  9  1  0
 26 16  1  0
 26 21  2  0
M  END
>  <name>  (1078) 
P134374

>  <alias>  (1078) 
None

>  <smina_score_min>  (1078) 
-8.13

>  <exports>  (1078) 
['/opt/xchem-fragalysis-2/maxwin/BulkDock/OUTPUTS/openbind_xx01zvns2b_c2_elabs_1LOUTNY.sdf', '/opt/xchem-fragalysis-2/maxwin/BulkDock/OUTPUTS/openbind_xx01zvns2b_c2_elabs_1LSYIIV.sdf']

>  <tags>  (1078) 
syndirella_placed,openbind_xx01zvns2b_c2_elabs,openbind_xx01zvns2b_c2_elabs_scored_6.2plus,syndirella_product,openbind_xx01zvns2b_c2_elabs_scored,openbind_xx01zvns2b_c1_elabs_filtered,openbind_xx01zvns2b_c2_elabs_scored_top80percent,BulkDock Fragalysis export

>  <subsites>  (1078) 
1 - Z4590/B/203/1

>  <smiles>  (1078) 
CCOCCCN1Cc2ccc(NC(=O)c3cc(Cl)cc4[nH]c(C)nc34)cc2C1

>  <HIPPO Pose ID>  (1078) 
134374

>  <energy_score>  (1078) 
-23.96471

>  <inchikey>  (1078) 
SWVCATWKDFNXBN-UHFFFAOYSA-N

>  <gnina_score_min>  (1078) 
6.263

>  <gnina_score>  (1078) 
6.098

>  <ref_mols>  (1078) 
Z3502a

>  <HIPPO Compound ID>  (1078) 
190914

>  <distance_score>  (1078) 
0.53559

>  <rmsd(smina/fragmenstein)>  (1078) 
0.705

>  <ref_pdb>  (1078) 
Z3502a

>  <inspiration_score>  (1078) 
None

$$$$
P134378
     RDKit          3D

 31 35  0  0  0  0  0  0  0  0999 V2000
   -2.9051    5.7399  -17.2718 C   0  0  0  0  0  0  0  0  0  0  0  0
   -4.3472    5.4630  -17.0957 C   0  0  0  0  0  0  0  0  0  0  0  0
   -5.0222    5.5176  -15.9675 N   0  0  0  0  0  0  0  0  0  0  0  0
   -6.3140    5.1613  -16.2818 C   0  0  0  0  0  0  0  0  0  0  0  0
   -7.4714    5.0463  -15.4986 C   0  0  0  0  0  0  0  0  0  0  0  0
   -7.5114    5.5586  -14.1289 C   0  0  0  0  0  0  0  0  0  0  0  0
   -7.3103    6.6983  -13.9666 O   0  0  0  0  0  0  0  0  0  0  0  0
   -7.9278    4.4589  -13.1205 N   0  0  0  0  0  0  0  0  0  0  0  0
   -8.0846    4.5125  -11.7408 C   0  0  0  0  0  0  0  0  0  0  0  0
   -7.9442    5.7588  -11.0982 C   0  0  0  0  0  0  0  0  0  0  0  0
   -8.1534    5.8873   -9.7356 C   0  0  0  0  0  0  0  0  0  0  0  0
   -8.4808    4.7398   -9.0549 C   0  0  0  0  0  0  0  0  0  0  0  0
   -8.6000    3.4815   -9.6482 C   0  0  0  0  0  0  0  0  0  0  0  0
   -8.4150    3.3547  -11.0159 C   0  0  0  0  0  0  0  0  0  0  0  0
   -8.9240    2.4650   -8.5955 C   0  0  0  0  0  0  0  0  0  0  0  0
   -8.9044    3.2834   -7.3830 N   0  0  0  0  0  0  0  0  0  0  0  0
   -9.0242    2.7407   -6.0489 C   0  0  1  0  0  0  0  0  0  0  0  0
   -8.0292    3.3419   -5.0460 C   0  0  0  0  0  0  0  0  0  0  0  0
   -8.8846    3.8058   -3.9119 C   0  0  0  0  0  0  0  0  0  0  0  0
   -8.4732    4.2389   -2.8452 O   0  0  0  0  0  0  0  0  0  0  0  0
  -10.1860    3.6580   -4.2395 N   0  0  0  0  0  0  0  0  0  0  0  0
  -10.3750    3.0686   -5.4455 C   0  0  0  0  0  0  0  0  0  0  0  0
  -11.4732    2.8821   -5.9429 O   0  0  0  0  0  0  0  0  0  0  0  0
   -8.7370    4.6218   -7.6312 C   0  0  0  0  0  0  0  0  0  0  0  0
   -8.7715    5.5527   -6.8479 O   0  0  0  0  0  0  0  0  0  0  0  0
   -8.6776    4.6417  -16.0798 C   0  0  0  0  0  0  0  0  0  0  0  0
   -8.7360    4.3957  -17.4439 C   0  0  0  0  0  0  0  0  0  0  0  0
  -10.2582    4.0582  -18.1469 Cl  0  0  0  0  0  0  0  0  0  0  0  0
   -7.6096    4.5000  -18.2600 C   0  0  0  0  0  0  0  0  0  0  0  0
   -6.4195    4.8864  -17.6415 C   0  0  0  0  0  0  0  0  0  0  0  0
   -5.1640    5.1100  -18.1403 N   0  0  0  0  0  0  0  0  0  0  0  0
  1  2  1  0
  2  3  2  0
  3  4  1  0
  4  5  2  0
  5  6  1  0
  6  7  2  0
  6  8  1  0
  8  9  1  0
  9 10  2  0
 10 11  1  0
 11 12  2  0
 12 13  1  0
 13 14  2  0
 13 15  1  0
 15 16  1  0
 17 16  1  6
 17 18  1  0
 18 19  1  0
 19 20  2  0
 19 21  1  0
 21 22  1  0
 22 23  2  0
 16 24  1  0
 24 25  2  0
  5 26  1  0
 26 27  2  0
 27 28  1  0
 27 29  1  0
 29 30  2  0
 30 31  1  0
 31  2  1  0
 30  4  1  0
 14  9  1  0
 22 17  1  0
 24 12  1  0
M  END
>  <name>  (1079) 
P134378

>  <alias>  (1079) 
None

>  <smina_score_min>  (1079) 
-9.126

>  <exports>  (1079) 
['/opt/xchem-fragalysis-2/maxwin/BulkDock/OUTPUTS/openbind_xx01zvns2b_c2_elabs_1LOUTNY.sdf', '/opt/xchem-fragalysis-2/maxwin/BulkDock/OUTPUTS/openbind_xx01zvns2b_c2_elabs_1LSYIIV.sdf']

>  <tags>  (1079) 
syndirella_placed,openbind_xx01zvns2b_c2_elabs,openbind_xx01zvns2b_c2_elabs_scored_6.2plus,syndirella_product,openbind_xx01zvns2b_c2_elabs_scored,openbind_xx01zvns2b_c1_elabs_filtered,openbind_xx01zvns2b_c2_elabs_scored_top80percent,BulkDock Fragalysis export

>  <subsites>  (1079) 
1 - Z4590/B/203/1

>  <smiles>  (1079) 
Cc1nc2c(C(=O)Nc3ccc4c(c3)CN([C@H]3CC(=O)NC3=O)C4=O)cc(Cl)cc2[nH]1

>  <HIPPO Pose ID>  (1079) 
134378

>  <energy_score>  (1079) 
-36.733936

>  <inchikey>  (1079) 
ISAOWJMVPJYTLO-INIZCTEOSA-N

>  <gnina_score_min>  (1079) 
6.243

>  <gnina_score>  (1079) 
6.118

>  <ref_mols>  (1079) 
Z3502a

>  <HIPPO Compound ID>  (1079) 
190919

>  <distance_score>  (1079) 
0.618087

>  <rmsd(smina/fragmenstein)>  (1079) 
0.513

>  <ref_pdb>  (1079) 
Z3502a

>  <inspiration_score>  (1079) 
None

$$$$
P134382
     RDKit          3D

 32 36  0  0  0  0  0  0  0  0999 V2000
   -2.9154    5.7131  -17.3647 C   0  0  0  0  0  0  0  0  0  0  0  0
   -4.3534    5.4354  -17.1602 C   0  0  0  0  0  0  0  0  0  0  0  0
   -5.0006    5.4769  -16.0158 N   0  0  0  0  0  0  0  0  0  0  0  0
   -6.3008    5.1290  -16.3033 C   0  0  0  0  0  0  0  0  0  0  0  0
   -7.4386    5.0126  -15.4908 C   0  0  0  0  0  0  0  0  0  0  0  0
   -7.4162    5.5193  -14.1188 C   0  0  0  0  0  0  0  0  0  0  0  0
   -7.2166    6.6617  -13.9709 O   0  0  0  0  0  0  0  0  0  0  0  0
   -7.7724    4.4200  -13.0862 N   0  0  0  0  0  0  0  0  0  0  0  0
   -8.0398    4.5127  -11.7235 C   0  0  0  0  0  0  0  0  0  0  0  0
   -7.9502    5.7819  -11.1173 C   0  0  0  0  0  0  0  0  0  0  0  0
   -8.2046    5.9499   -9.7679 C   0  0  0  0  0  0  0  0  0  0  0  0
   -8.5295    4.8186   -9.0599 C   0  0  0  0  0  0  0  0  0  0  0  0
   -8.6147    3.5410   -9.6145 C   0  0  0  0  0  0  0  0  0  0  0  0
   -8.3832    3.3737  -10.9728 C   0  0  0  0  0  0  0  0  0  0  0  0
   -8.9342    2.5566   -8.5278 C   0  0  0  0  0  0  0  0  0  0  0  0
   -8.9227    3.4147   -7.3374 N   0  0  0  0  0  0  0  0  0  0  0  0
   -8.9140    2.8968   -5.9783 C   0  0  1  0  0  0  0  0  0  0  0  0
   -7.7683    3.5063   -5.1470 C   0  0  0  0  0  0  0  0  0  0  0  0
   -8.1549    4.5643   -4.1356 C   0  0  2  0  0  0  0  0  0  0  0  0
   -7.0970    4.7382   -3.2875 F   0  0  0  0  0  0  0  0  0  0  0  0
   -9.3467    4.0919   -3.3408 C   0  0  0  0  0  0  0  0  0  0  0  0
  -10.4453    3.7436   -4.1996 N   0  0  0  0  0  0  0  0  0  0  0  0
  -10.3086    3.0227   -5.3531 C   0  0  0  0  0  0  0  0  0  0  0  0
  -11.3245    2.5563   -5.8635 O   0  0  0  0  0  0  0  0  0  0  0  0
   -8.7763    4.7436   -7.6321 C   0  0  0  0  0  0  0  0  0  0  0  0
   -8.7855    5.7065   -6.8885 O   0  0  0  0  0  0  0  0  0  0  0  0
   -8.6626    4.6231  -16.0439 C   0  0  0  0  0  0  0  0  0  0  0  0
   -8.7544    4.3900  -17.4102 C   0  0  0  0  0  0  0  0  0  0  0  0
  -10.2920    4.0685  -18.0908 Cl  0  0  0  0  0  0  0  0  0  0  0  0
   -7.6468    4.4948  -18.2533 C   0  0  0  0  0  0  0  0  0  0  0  0
   -6.4402    4.8701  -17.6623 C   0  0  0  0  0  0  0  0  0  0  0  0
   -5.1962    5.0961  -18.1890 N   0  0  0  0  0  0  0  0  0  0  0  0
  1  2  1  0
  2  3  2  0
  3  4  1  0
  4  5  2  0
  5  6  1  0
  6  7  2  0
  6  8  1  0
  8  9  1  0
  9 10  2  0
 10 11  1  0
 11 12  2  0
 12 13  1  0
 13 14  2  0
 13 15  1  0
 15 16  1  0
 17 16  1  6
 17 18  1  0
 18 19  1  0
 19 20  1  1
 19 21  1  0
 21 22  1  0
 22 23  1  0
 23 24  2  0
 16 25  1  0
 25 26  2  0
  5 27  1  0
 27 28  2  0
 28 29  1  0
 28 30  1  0
 30 31  2  0
 31 32  1  0
 32  2  1  0
 31  4  1  0
 14  9  1  0
 23 17  1  0
 25 12  1  0
M  END
>  <name>  (1080) 
P134382

>  <alias>  (1080) 
None

>  <smina_score_min>  (1080) 
-8.966

>  <exports>  (1080) 
['/opt/xchem-fragalysis-2/maxwin/BulkDock/OUTPUTS/openbind_xx01zvns2b_c2_elabs_1LOUTNY.sdf', '/opt/xchem-fragalysis-2/maxwin/BulkDock/OUTPUTS/openbind_xx01zvns2b_c2_elabs_1LSYIIV.sdf']

>  <tags>  (1080) 
syndirella_placed,openbind_xx01zvns2b_c2_elabs,openbind_xx01zvns2b_c2_elabs_scored_6.2plus,syndirella_product,openbind_xx01zvns2b_c2_elabs_scored,openbind_xx01zvns2b_c1_elabs_filtered,openbind_xx01zvns2b_c2_elabs_scored_top80percent,BulkDock Fragalysis export

>  <subsites>  (1080) 
1 - Z4590/B/203/1

>  <smiles>  (1080) 
Cc1nc2c(C(=O)Nc3ccc4c(c3)CN([C@H]3C[C@H](F)CNC3=O)C4=O)cc(Cl)cc2[nH]1

>  <HIPPO Pose ID>  (1080) 
134382

>  <energy_score>  (1080) 
-34.101908

>  <inchikey>  (1080) 
VWRIYBUMSKWNOT-UGSOOPFHSA-N

>  <gnina_score_min>  (1080) 
6.219

>  <gnina_score>  (1080) 
6.211

>  <ref_mols>  (1080) 
Z3502a

>  <HIPPO Compound ID>  (1080) 
190920

>  <distance_score>  (1080) 
0.652622

>  <rmsd(smina/fragmenstein)>  (1080) 
0.567

>  <ref_pdb>  (1080) 
Z3502a

>  <inspiration_score>  (1080) 
None

$$$$
P134392
     RDKit          3D

 32 36  0  0  0  0  0  0  0  0999 V2000
   -2.8159    5.6486  -17.7271 C   0  0  0  0  0  0  0  0  0  0  0  0
   -4.2563    5.4346  -17.4776 C   0  0  0  0  0  0  0  0  0  0  0  0
   -4.8711    5.5794  -16.3247 N   0  0  0  0  0  0  0  0  0  0  0  0
   -6.1874    5.2659  -16.5619 C   0  0  0  0  0  0  0  0  0  0  0  0
   -7.3017    5.2486  -15.7154 C   0  0  0  0  0  0  0  0  0  0  0  0
   -7.1682    5.7360  -14.3408 C   0  0  0  0  0  0  0  0  0  0  0  0
   -6.7451    6.8038  -14.1409 O   0  0  0  0  0  0  0  0  0  0  0  0
   -7.6795    4.6637  -13.3587 N   0  0  0  0  0  0  0  0  0  0  0  0
   -7.6894    4.6436  -11.9780 C   0  0  0  0  0  0  0  0  0  0  0  0
   -7.1523    5.7228  -11.2464 C   0  0  0  0  0  0  0  0  0  0  0  0
   -7.1357    5.7089   -9.8551 C   0  0  0  0  0  0  0  0  0  0  0  0
   -7.6859    4.6080   -9.2455 C   0  0  0  0  0  0  0  0  0  0  0  0
   -8.2424    3.5747   -9.9631 C   0  0  0  0  0  0  0  0  0  0  0  0
   -8.2499    3.5440  -11.3380 C   0  0  0  0  0  0  0  0  0  0  0  0
   -8.9158    2.7059   -9.0281 C   0  0  0  0  0  0  0  0  0  0  0  0
   -9.6516    1.8349   -9.4544 O   0  0  0  0  0  0  0  0  0  0  0  0
   -8.6736    3.2209   -7.7669 N   0  0  0  0  0  0  0  0  0  0  0  0
   -9.4098    2.8420   -6.6305 C   0  0  0  0  0  0  0  0  0  0  0  0
  -10.2069    1.7073   -6.6982 C   0  0  0  0  0  0  0  0  0  0  0  0
  -11.2312    1.5447   -5.7983 C   0  0  0  0  0  0  0  0  0  0  0  0
  -11.3881    2.4208   -4.7578 C   0  0  0  0  0  0  0  0  0  0  0  0
  -12.4514    2.2646   -3.9618 F   0  0  0  0  0  0  0  0  0  0  0  0
  -10.4851    3.4467   -4.5497 C   0  0  0  0  0  0  0  0  0  0  0  0
   -9.4968    3.6676   -5.4980 C   0  0  0  0  0  0  0  0  0  0  0  0
   -7.9026    4.3538   -7.8365 C   0  0  0  0  0  0  0  0  0  0  0  0
   -7.4579    5.1135   -6.9910 O   0  0  0  0  0  0  0  0  0  0  0  0
   -8.5482    4.8278  -16.1923 C   0  0  0  0  0  0  0  0  0  0  0  0
   -8.6826    4.4669  -17.5262 C   0  0  0  0  0  0  0  0  0  0  0  0
  -10.2407    4.0700  -18.1133 Cl  0  0  0  0  0  0  0  0  0  0  0  0
   -7.5988    4.4845  -18.4061 C   0  0  0  0  0  0  0  0  0  0  0  0
   -6.3696    4.8964  -17.8879 C   0  0  0  0  0  0  0  0  0  0  0  0
   -5.1347    5.0517  -18.4626 N   0  0  0  0  0  0  0  0  0  0  0  0
  1  2  1  0
  2  3  2  0
  3  4  1  0
  4  5  2  0
  5  6  1  0
  6  7  2  0
  6  8  1  0
  8  9  1  0
  9 10  2  0
 10 11  1  0
 11 12  2  0
 12 13  1  0
 13 14  2  0
 13 15  1  0
 15 16  2  0
 15 17  1  0
 17 18  1  0
 18 19  2  0
 19 20  1  0
 20 21  2  0
 21 22  1  0
 21 23  1  0
 23 24  2  0
 17 25  1  0
 25 26  2  0
  5 27  1  0
 27 28  2  0
 28 29  1  0
 28 30  1  0
 30 31  2  0
 31 32  1  0
 32  2  1  0
 31  4  1  0
 14  9  1  0
 24 18  1  0
 25 12  1  0
M  END
>  <name>  (1081) 
P134392

>  <alias>  (1081) 
None

>  <smina_score_min>  (1081) 
-9.884

>  <exports>  (1081) 
['/opt/xchem-fragalysis-2/maxwin/BulkDock/OUTPUTS/openbind_xx01zvns2b_c2_elabs_1LOUTNY.sdf', '/opt/xchem-fragalysis-2/maxwin/BulkDock/OUTPUTS/openbind_xx01zvns2b_c2_elabs_1LSYIIV.sdf']

>  <tags>  (1081) 
syndirella_placed,openbind_xx01zvns2b_c2_elabs,openbind_xx01zvns2b_c2_elabs_scored_6.2plus,syndirella_product,openbind_xx01zvns2b_c2_elabs_scored,openbind_xx01zvns2b_c1_elabs_filtered,openbind_xx01zvns2b_c2_elabs_scored_top80percent,BulkDock Fragalysis export

>  <subsites>  (1081) 
1 - Z4590/B/203/1

>  <smiles>  (1081) 
Cc1nc2c(C(=O)Nc3ccc4c(c3)C(=O)N(c3ccc(F)cc3)C4=O)cc(Cl)cc2[nH]1

>  <HIPPO Pose ID>  (1081) 
134392

>  <energy_score>  (1081) 
-28.298147

>  <inchikey>  (1081) 
LUTOPJRVEURNSH-UHFFFAOYSA-N

>  <gnina_score_min>  (1081) 
6.374

>  <gnina_score>  (1081) 
6.159

>  <ref_mols>  (1081) 
Z3502a

>  <HIPPO Compound ID>  (1081) 
190927

>  <distance_score>  (1081) 
0.913111

>  <rmsd(smina/fragmenstein)>  (1081) 
1.05

>  <ref_pdb>  (1081) 
Z3502a

>  <inspiration_score>  (1081) 
None

$$$$
P134393
     RDKit          3D

 33 37  0  0  0  0  0  0  0  0999 V2000
   -2.7771    5.7165  -17.5613 C   0  0  0  0  0  0  0  0  0  0  0  0
   -4.2243    5.4993  -17.3551 C   0  0  0  0  0  0  0  0  0  0  0  0
   -4.8838    5.6739  -16.2300 N   0  0  0  0  0  0  0  0  0  0  0  0
   -6.1834    5.3296  -16.5071 C   0  0  0  0  0  0  0  0  0  0  0  0
   -7.3291    5.3152  -15.7104 C   0  0  0  0  0  0  0  0  0  0  0  0
   -7.3135    5.8661  -14.3607 C   0  0  0  0  0  0  0  0  0  0  0  0
   -7.2665    7.0181  -14.1984 O   0  0  0  0  0  0  0  0  0  0  0  0
   -7.4687    4.7229  -13.3467 N   0  0  0  0  0  0  0  0  0  0  0  0
   -7.6849    4.7562  -11.9847 C   0  0  0  0  0  0  0  0  0  0  0  0
   -7.9782    5.9778  -11.3368 C   0  0  0  0  0  0  0  0  0  0  0  0
   -8.2945    6.0160   -9.9805 C   0  0  0  0  0  0  0  0  0  0  0  0
   -8.2647    4.8161   -9.3168 C   0  0  0  0  0  0  0  0  0  0  0  0
   -7.9217    3.6366   -9.9463 C   0  0  0  0  0  0  0  0  0  0  0  0
   -7.6569    3.5548  -11.2895 C   0  0  0  0  0  0  0  0  0  0  0  0
   -7.9310    2.5914   -8.9532 C   0  0  0  0  0  0  0  0  0  0  0  0
   -7.6423    1.4432   -9.2057 O   0  0  0  0  0  0  0  0  0  0  0  0
   -8.3243    3.1725   -7.7838 N   0  0  0  0  0  0  0  0  0  0  0  0
   -8.8532    2.3658   -6.7200 C   0  0  2  0  0  0  0  0  0  0  0  0
  -10.2427    1.9189   -7.1213 C   0  0  0  0  0  0  0  0  0  0  0  0
  -10.9375    1.4175   -5.9100 C   0  0  0  0  0  0  0  0  0  0  0  0
  -11.0346    2.4987   -4.9052 C   0  0  0  0  0  0  0  0  0  0  0  0
  -12.0437    2.6120   -4.2252 O   0  0  0  0  0  0  0  0  0  0  0  0
   -9.9384    3.2930   -4.7287 N   0  0  0  0  0  0  0  0  0  0  0  0
   -8.7465    3.1371   -5.3946 C   0  0  0  0  0  0  0  0  0  0  0  0
   -7.6993    3.6172   -4.9494 O   0  0  0  0  0  0  0  0  0  0  0  0
   -8.6235    4.4916   -7.9502 C   0  0  0  0  0  0  0  0  0  0  0  0
   -9.1606    5.2738   -7.1881 O   0  0  0  0  0  0  0  0  0  0  0  0
   -8.5476    4.8485  -16.2124 C   0  0  0  0  0  0  0  0  0  0  0  0
   -8.6320    4.4623  -17.5411 C   0  0  0  0  0  0  0  0  0  0  0  0
  -10.1651    4.0260  -18.1619 Cl  0  0  0  0  0  0  0  0  0  0  0  0
   -7.5201    4.4891  -18.3854 C   0  0  0  0  0  0  0  0  0  0  0  0
   -6.3140    4.9251  -17.8300 C   0  0  0  0  0  0  0  0  0  0  0  0
   -5.0614    5.0824  -18.3622 N   0  0  0  0  0  0  0  0  0  0  0  0
  1  2  1  0
  2  3  2  0
  3  4  1  0
  4  5  2  0
  5  6  1  0
  6  7  2  0
  6  8  1  0
  8  9  1  0
  9 10  2  0
 10 11  1  0
 11 12  2  0
 12 13  1  0
 13 14  2  0
 13 15  1  0
 15 16  2  0
 15 17  1  0
 18 17  1  6
 18 19  1  0
 19 20  1  0
 20 21  1  0
 21 22  2  0
 21 23  1  0
 23 24  1  0
 24 25  2  0
 17 26  1  0
 26 27  2  0
  5 28  1  0
 28 29  2  0
 29 30  1  0
 29 31  1  0
 31 32  2  0
 32 33  1  0
 33  2  1  0
 32  4  1  0
 14  9  1  0
 24 18  1  0
 26 12  1  0
M  END
>  <name>  (1082) 
P134393

>  <alias>  (1082) 
None

>  <smina_score_min>  (1082) 
-8.178

>  <exports>  (1082) 
['/opt/xchem-fragalysis-2/maxwin/BulkDock/OUTPUTS/openbind_xx01zvns2b_c2_elabs_1LOUTNY.sdf', '/opt/xchem-fragalysis-2/maxwin/BulkDock/OUTPUTS/openbind_xx01zvns2b_c2_elabs_1LSYIIV.sdf']

>  <tags>  (1082) 
syndirella_placed,openbind_xx01zvns2b_c2_elabs,openbind_xx01zvns2b_c2_elabs_scored_6.2plus,syndirella_product,openbind_xx01zvns2b_c2_elabs_scored,openbind_xx01zvns2b_c1_elabs_filtered,openbind_xx01zvns2b_c2_elabs_scored_top80percent,BulkDock Fragalysis export

>  <subsites>  (1082) 
1 - Z4590/B/203/1

>  <smiles>  (1082) 
Cc1nc2c(C(=O)Nc3ccc4c(c3)C(=O)N([C@@H]3CCC(=O)NC3=O)C4=O)cc(Cl)cc2[nH]1

>  <HIPPO Pose ID>  (1082) 
134393

>  <energy_score>  (1082) 
-29.813508

>  <inchikey>  (1082) 
NNSIGPMFMVXMAU-MRXNPFEDSA-N

>  <gnina_score_min>  (1082) 
6.346

>  <gnina_score>  (1082) 
6.33

>  <ref_mols>  (1082) 
Z3502a

>  <HIPPO Compound ID>  (1082) 
190930

>  <distance_score>  (1082) 
0.949313

>  <rmsd(smina/fragmenstein)>  (1082) 
1.949

>  <ref_pdb>  (1082) 
Z3502a

>  <inspiration_score>  (1082) 
None

$$$$
P134394
     RDKit          3D

 33 37  0  0  0  0  0  0  0  0999 V2000
   -2.9020    5.7701  -17.1819 C   0  0  0  0  0  0  0  0  0  0  0  0
   -4.3463    5.4944  -17.0199 C   0  0  0  0  0  0  0  0  0  0  0  0
   -5.0372    5.5636  -15.9019 N   0  0  0  0  0  0  0  0  0  0  0  0
   -6.3229    5.1951  -16.2271 C   0  0  0  0  0  0  0  0  0  0  0  0
   -7.4897    5.0814  -15.4570 C   0  0  0  0  0  0  0  0  0  0  0  0
   -7.5613    5.6149  -14.0947 C   0  0  0  0  0  0  0  0  0  0  0  0
   -7.4178    6.7657  -13.9516 O   0  0  0  0  0  0  0  0  0  0  0  0
   -7.9272    4.5137  -13.0691 N   0  0  0  0  0  0  0  0  0  0  0  0
   -8.0929    4.5831  -11.6897 C   0  0  0  0  0  0  0  0  0  0  0  0
   -8.0340    5.8426  -11.0594 C   0  0  0  0  0  0  0  0  0  0  0  0
   -8.2424    5.9728   -9.6929 C   0  0  0  0  0  0  0  0  0  0  0  0
   -8.4803    4.8155   -8.9914 C   0  0  0  0  0  0  0  0  0  0  0  0
   -8.5144    3.5490   -9.5789 C   0  0  0  0  0  0  0  0  0  0  0  0
   -8.3428    3.4174  -10.9486 C   0  0  0  0  0  0  0  0  0  0  0  0
   -8.7261    2.5194   -8.5146 C   0  0  0  0  0  0  0  0  0  0  0  0
   -8.6540    3.3347   -7.2983 N   0  0  0  0  0  0  0  0  0  0  0  0
   -8.7507    2.7763   -5.9634 C   0  0  2  0  0  0  0  0  0  0  0  0
  -10.1865    2.6203   -5.5210 C   0  0  0  0  0  0  0  0  0  0  0  0
  -10.6336    3.7619   -4.6615 C   0  0  0  0  0  0  0  0  0  0  0  0
   -9.7067    4.1144   -3.5327 C   0  0  0  0  0  0  0  0  0  0  0  0
  -10.1485    4.5945   -2.4849 O   0  0  0  0  0  0  0  0  0  0  0  0
   -8.3587    3.9663   -3.7566 N   0  0  0  0  0  0  0  0  0  0  0  0
   -7.4783    4.5836   -2.7800 C   0  0  0  0  0  0  0  0  0  0  0  0
   -7.8166    3.5500   -4.9630 C   0  0  0  0  0  0  0  0  0  0  0  0
   -6.6287    3.8132   -5.2012 O   0  0  0  0  0  0  0  0  0  0  0  0
   -8.6851    4.6810   -7.5543 C   0  0  0  0  0  0  0  0  0  0  0  0
   -8.8317    5.6008   -6.7713 O   0  0  0  0  0  0  0  0  0  0  0  0
   -8.6839    4.6589  -16.0513 C   0  0  0  0  0  0  0  0  0  0  0  0
   -8.7241    4.4020  -17.4147 C   0  0  0  0  0  0  0  0  0  0  0  0
  -10.2344    4.0457  -18.1354 Cl  0  0  0  0  0  0  0  0  0  0  0  0
   -7.5892    4.5104  -18.2180 C   0  0  0  0  0  0  0  0  0  0  0  0
   -6.4095    4.9058  -17.5860 C   0  0  0  0  0  0  0  0  0  0  0  0
   -5.1481    5.1270  -18.0705 N   0  0  0  0  0  0  0  0  0  0  0  0
  1  2  1  0
  2  3  2  0
  3  4  1  0
  4  5  2  0
  5  6  1  0
  6  7  2  0
  6  8  1  0
  8  9  1  0
  9 10  2  0
 10 11  1  0
 11 12  2  0
 12 13  1  0
 13 14  2  0
 13 15  1  0
 15 16  1  0
 17 16  1  6
 17 18  1  0
 18 19  1  0
 19 20  1  0
 20 21  2  0
 20 22  1  0
 22 23  1  0
 22 24  1  0
 24 25  2  0
 16 26  1  0
 26 27  2  0
  5 28  1  0
 28 29  2  0
 29 30  1  0
 29 31  1  0
 31 32  2  0
 32 33  1  0
 33  2  1  0
 32  4  1  0
 14  9  1  0
 24 17  1  0
 26 12  1  0
M  END
>  <name>  (1083) 
P134394

>  <alias>  (1083) 
None

>  <smina_score_min>  (1083) 
-9.274

>  <exports>  (1083) 
['/opt/xchem-fragalysis-2/maxwin/BulkDock/OUTPUTS/openbind_xx01zvns2b_c2_elabs_1LOUTNY.sdf', '/opt/xchem-fragalysis-2/maxwin/BulkDock/OUTPUTS/openbind_xx01zvns2b_c2_elabs_1LSYIIV.sdf']

>  <tags>  (1083) 
syndirella_placed,openbind_xx01zvns2b_c2_elabs,openbind_xx01zvns2b_c2_elabs_scored_6.2plus,syndirella_product,openbind_xx01zvns2b_c2_elabs_scored,openbind_xx01zvns2b_c1_elabs_filtered,openbind_xx01zvns2b_c2_elabs_scored_top80percent,BulkDock Fragalysis export

>  <subsites>  (1083) 
1 - Z4590/B/203/1

>  <smiles>  (1083) 
Cc1nc2c(C(=O)Nc3ccc4c(c3)CN([C@@H]3CCC(=O)N(C)C3=O)C4=O)cc(Cl)cc2[nH]1

>  <HIPPO Pose ID>  (1083) 
134394

>  <energy_score>  (1083) 
-38.666432

>  <inchikey>  (1083) 
BZLFERCMROHCMW-GOSISDBHSA-N

>  <gnina_score_min>  (1083) 
6.453

>  <gnina_score>  (1083) 
6.224

>  <ref_mols>  (1083) 
Z3502a

>  <HIPPO Compound ID>  (1083) 
190931

>  <distance_score>  (1083) 
0.655403

>  <rmsd(smina/fragmenstein)>  (1083) 
1.271

>  <ref_pdb>  (1083) 
Z3502a

>  <inspiration_score>  (1083) 
None

$$$$
P134396
     RDKit          3D

 33 37  0  0  0  0  0  0  0  0999 V2000
   -2.9578    5.7087  -17.3355 C   0  0  0  0  0  0  0  0  0  0  0  0
   -4.3970    5.4336  -17.1356 C   0  0  0  0  0  0  0  0  0  0  0  0
   -5.0529    5.4921  -15.9963 N   0  0  0  0  0  0  0  0  0  0  0  0
   -6.3526    5.1405  -16.2878 C   0  0  0  0  0  0  0  0  0  0  0  0
   -7.4987    5.0356  -15.4816 C   0  0  0  0  0  0  0  0  0  0  0  0
   -7.4914    5.5607  -14.1124 C   0  0  0  0  0  0  0  0  0  0  0  0
   -7.2007    6.6847  -13.9718 O   0  0  0  0  0  0  0  0  0  0  0  0
   -7.9844    4.5128  -13.0798 N   0  0  0  0  0  0  0  0  0  0  0  0
   -8.1248    4.6026  -11.6980 C   0  0  0  0  0  0  0  0  0  0  0  0
   -7.7919    5.8214  -11.0730 C   0  0  0  0  0  0  0  0  0  0  0  0
   -7.8564    5.9752   -9.6948 C   0  0  0  0  0  0  0  0  0  0  0  0
   -8.2601    4.8884   -8.9569 C   0  0  0  0  0  0  0  0  0  0  0  0
   -8.6283    3.6898   -9.5685 C   0  0  0  0  0  0  0  0  0  0  0  0
   -8.5682    3.5122  -10.9419 C   0  0  0  0  0  0  0  0  0  0  0  0
   -9.0167    2.7623   -8.4944 C   0  0  0  0  0  0  0  0  0  0  0  0
   -9.4933    1.6595   -8.6644 O   0  0  0  0  0  0  0  0  0  0  0  0
   -8.7745    3.4230   -7.2910 N   0  0  0  0  0  0  0  0  0  0  0  0
   -8.7796    2.7598   -5.9897 C   0  0  2  0  0  0  0  0  0  0  0  0
  -10.2037    2.5129   -5.5330 C   0  0  0  0  0  0  0  0  0  0  0  0
  -10.7056    3.6477   -4.6951 C   0  0  0  0  0  0  0  0  0  0  0  0
   -9.8092    4.0354   -3.5523 C   0  0  0  0  0  0  0  0  0  0  0  0
  -10.2707    4.5503   -2.5313 O   0  0  0  0  0  0  0  0  0  0  0  0
   -8.4562    3.9016   -3.7403 N   0  0  0  0  0  0  0  0  0  0  0  0
   -7.6100    4.5022   -2.7205 C   0  0  0  0  0  0  0  0  0  0  0  0
   -7.8769    3.4792   -4.9236 C   0  0  0  0  0  0  0  0  0  0  0  0
   -6.6859    3.7639   -5.1210 O   0  0  0  0  0  0  0  0  0  0  0  0
   -8.3038    4.7697   -7.4817 C   0  0  0  0  0  0  0  0  0  0  0  0
   -8.7147    4.6373  -16.0452 C   0  0  0  0  0  0  0  0  0  0  0  0
   -8.7949    4.3904  -17.4100 C   0  0  0  0  0  0  0  0  0  0  0  0
  -10.3290    4.0730  -18.0987 Cl  0  0  0  0  0  0  0  0  0  0  0  0
   -7.6809    4.4838  -18.2439 C   0  0  0  0  0  0  0  0  0  0  0  0
   -6.4801    4.8635  -17.6449 C   0  0  0  0  0  0  0  0  0  0  0  0
   -5.2314    5.0778  -18.1654 N   0  0  0  0  0  0  0  0  0  0  0  0
  1  2  1  0
  2  3  2  0
  3  4  1  0
  4  5  2  0
  5  6  1  0
  6  7  2  0
  6  8  1  0
  8  9  1  0
  9 10  2  0
 10 11  1  0
 11 12  2  0
 12 13  1  0
 13 14  2  0
 13 15  1  0
 15 16  2  0
 15 17  1  0
 18 17  1  6
 18 19  1  0
 19 20  1  0
 20 21  1  0
 21 22  2  0
 21 23  1  0
 23 24  1  0
 23 25  1  0
 25 26  2  0
 17 27  1  0
  5 28  1  0
 28 29  2  0
 29 30  1  0
 29 31  1  0
 31 32  2  0
 32 33  1  0
 33  2  1  0
 32  4  1  0
 14  9  1  0
 25 18  1  0
 27 12  1  0
M  END
>  <name>  (1084) 
P134396

>  <alias>  (1084) 
None

>  <smina_score_min>  (1084) 
-9.329

>  <exports>  (1084) 
['/opt/xchem-fragalysis-2/maxwin/BulkDock/OUTPUTS/openbind_xx01zvns2b_c2_elabs_1LOUTNY.sdf', '/opt/xchem-fragalysis-2/maxwin/BulkDock/OUTPUTS/openbind_xx01zvns2b_c2_elabs_1LSYIIV.sdf']

>  <tags>  (1084) 
syndirella_placed,openbind_xx01zvns2b_c2_elabs,openbind_xx01zvns2b_c2_elabs_scored_6.2plus,syndirella_product,openbind_xx01zvns2b_c2_elabs_scored,openbind_xx01zvns2b_c1_elabs_filtered,openbind_xx01zvns2b_c2_elabs_scored_top80percent,BulkDock Fragalysis export

>  <subsites>  (1084) 
1 - Z4590/B/203/1

>  <smiles>  (1084) 
Cc1nc2c(C(=O)Nc3ccc4c(c3)C(=O)N([C@@H]3CCC(=O)N(C)C3=O)C4)cc(Cl)cc2[nH]1

>  <HIPPO Pose ID>  (1084) 
134396

>  <energy_score>  (1084) 
-37.300298

>  <inchikey>  (1084) 
NQMFKVJMSBAPQB-GOSISDBHSA-N

>  <gnina_score_min>  (1084) 
6.244

>  <gnina_score>  (1084) 
6.204

>  <ref_mols>  (1084) 
Z3502a

>  <HIPPO Compound ID>  (1084) 
190932

>  <distance_score>  (1084) 
0.693841

>  <rmsd(smina/fragmenstein)>  (1084) 
0.97

>  <ref_pdb>  (1084) 
Z3502a

>  <inspiration_score>  (1084) 
None

$$$$
P138913
     RDKit          3D

 29 32  0  0  0  0  0  0  0  0999 V2000
   -4.1820    5.4587  -16.3694 C   0  0  0  0  0  0  0  0  0  0  0  0
   -5.2248    5.8298  -17.4173 C   0  0  0  0  0  0  0  0  0  0  0  0
   -5.2839    7.3578  -17.5843 C   0  0  0  0  0  0  0  0  0  0  0  0
   -4.8193    5.2948  -18.8161 C   0  0  0  0  0  0  0  0  0  0  0  0
   -3.7221    5.3731  -19.3497 O   0  0  0  0  0  0  0  0  0  0  0  0
   -5.9545    4.7535  -19.3922 N   0  0  0  0  0  0  0  0  0  0  0  0
   -6.9819    4.6452  -18.4685 C   0  0  0  0  0  0  0  0  0  0  0  0
   -8.2123    4.0586  -18.6897 C   0  0  0  0  0  0  0  0  0  0  0  0
   -9.0974    3.9818  -17.6204 C   0  0  0  0  0  0  0  0  0  0  0  0
   -8.7290    4.4870  -16.3650 C   0  0  0  0  0  0  0  0  0  0  0  0
   -7.4737    5.1026  -16.1660 C   0  0  0  0  0  0  0  0  0  0  0  0
   -7.2473    5.8264  -14.8900 C   0  0  0  0  0  0  0  0  0  0  0  0
   -6.8557    6.9218  -14.9635 O   0  0  0  0  0  0  0  0  0  0  0  0
   -7.6799    5.0003  -13.6626 N   0  0  0  0  0  0  0  0  0  0  0  0
   -7.8068    5.3653  -12.3298 C   0  0  0  0  0  0  0  0  0  0  0  0
   -7.7903    6.7167  -11.9859 C   0  0  0  0  0  0  0  0  0  0  0  0
   -7.9452    7.1072  -10.6634 C   0  0  0  0  0  0  0  0  0  0  0  0
   -8.0607    6.1420   -9.6708 C   0  0  0  0  0  0  0  0  0  0  0  0
   -8.0245    4.7708   -9.9838 C   0  0  0  0  0  0  0  0  0  0  0  0
   -8.0325    3.7182   -8.8902 C   0  0  1  0  0  0  0  0  0  0  0  0
   -7.6101    4.2249   -7.4996 C   0  0  0  0  0  0  0  0  0  0  0  0
   -9.3319    3.1004   -8.7676 N   0  0  0  0  0  0  0  0  0  0  0  0
   -9.2249    1.7369   -8.7679 C   0  0  0  0  0  0  0  0  0  0  0  0
  -10.1846    0.9918   -8.7322 O   0  0  0  0  0  0  0  0  0  0  0  0
   -7.9438    1.3787   -8.9495 N   0  0  0  0  0  0  0  0  0  0  0  0
   -7.1832    2.4709   -9.2232 C   0  0  0  0  0  0  0  0  0  0  0  0
   -6.0356    2.4547   -9.6500 O   0  0  0  0  0  0  0  0  0  0  0  0
   -7.9617    4.3966  -11.3426 C   0  0  0  0  0  0  0  0  0  0  0  0
   -6.5965    5.1978  -17.2420 C   0  0  0  0  0  0  0  0  0  0  0  0
  1  2  1  0
  2  3  1  0
  2  4  1  0
  4  5  2  0
  4  6  1  0
  6  7  1  0
  7  8  2  0
  8  9  1  0
  9 10  2  0
 10 11  1  0
 11 12  1  0
 12 13  2  0
 12 14  1  0
 14 15  1  0
 15 16  2  0
 16 17  1  0
 17 18  2  0
 18 19  1  0
 19 20  1  0
 20 21  1  1
 20 22  1  0
 22 23  1  0
 23 24  2  0
 23 25  1  0
 25 26  1  0
 26 27  2  0
 19 28  2  0
 11 29  2  0
 29  2  1  0
 29  7  1  0
 28 15  1  0
 26 20  1  0
M  END
>  <name>  (1085) 
P138913

>  <alias>  (1085) 
None

>  <smina_score_min>  (1085) 
-9.752

>  <exports>  (1085) 
['/opt/xchem-fragalysis-2/maxwin/BulkDock/OUTPUTS/openbind_xx01zvns2b_c2_elabs_1LOUTNY.sdf', '/opt/xchem-fragalysis-2/maxwin/BulkDock/OUTPUTS/openbind_xx01zvns2b_c2_elabs_1LSYIIV.sdf']

>  <tags>  (1085) 
syndirella_placed,openbind_xx01zvns2b_c2_elabs,openbind_xx01zvns2b_c2_elabs_scored_6.2plus,syndirella_product,openbind_xx01zvns2b_c2_elabs_scored,openbind_xx01zvns2b_c1_elabs_filtered,openbind_xx01zvns2b_c2_elabs_scored_top80percent,BulkDock Fragalysis export

>  <subsites>  (1085) 
1 - Z4590/B/203/1

>  <smiles>  (1085) 
CC1(C)C(=O)Nc2cccc(C(=O)Nc3cccc([C@@]4(C)NC(=O)NC4=O)c3)c21

>  <HIPPO Pose ID>  (1085) 
138913

>  <energy_score>  (1085) 
-84.226602

>  <inchikey>  (1085) 
OBTJPNBLPBKAEB-OAQYLSRUSA-N

>  <gnina_score_min>  (1085) 
6.255

>  <gnina_score>  (1085) 
6.375

>  <ref_mols>  (1085) 
Z3758a

>  <HIPPO Compound ID>  (1085) 
183732

>  <distance_score>  (1085) 
0.696323

>  <rmsd(smina/fragmenstein)>  (1085) 
0.45

>  <ref_pdb>  (1085) 
Z3758a

>  <inspiration_score>  (1085) 
None

$$$$
P138937
     RDKit          3D

 30 33  0  0  0  0  0  0  0  0999 V2000
  -11.9796    2.4162   -5.3032 C   0  0  0  0  0  0  0  0  0  0  0  0
  -10.4743    2.3869   -5.3500 C   0  0  1  0  0  0  0  0  0  0  0  0
   -9.9584    1.7250   -6.6212 C   0  0  0  0  0  0  0  0  0  0  0  0
   -9.5118    2.8539   -7.4480 N   0  0  0  0  0  0  0  0  0  0  0  0
   -8.7382    2.3583   -8.5954 C   0  0  0  0  0  0  0  0  0  0  0  0
   -7.5715    3.2191   -9.0795 C   0  0  0  0  0  0  0  0  0  0  0  0
   -7.8647    4.3315  -10.0490 C   0  0  0  0  0  0  0  0  0  0  0  0
   -7.9753    5.6577   -9.6115 C   0  0  0  0  0  0  0  0  0  0  0  0
   -8.0205    6.7020  -10.5296 C   0  0  0  0  0  0  0  0  0  0  0  0
   -7.9225    6.4265  -11.8902 C   0  0  0  0  0  0  0  0  0  0  0  0
   -7.8453    5.1059  -12.3361 C   0  0  0  0  0  0  0  0  0  0  0  0
   -7.7122    4.8295  -13.6885 N   0  0  0  0  0  0  0  0  0  0  0  0
   -7.3363    5.7495  -14.8656 C   0  0  0  0  0  0  0  0  0  0  0  0
   -7.0042    6.8667  -14.8752 O   0  0  0  0  0  0  0  0  0  0  0  0
   -7.5404    5.0792  -16.1716 C   0  0  0  0  0  0  0  0  0  0  0  0
   -8.7895    4.4649  -16.4043 C   0  0  0  0  0  0  0  0  0  0  0  0
   -9.1334    3.9844  -17.6749 C   0  0  0  0  0  0  0  0  0  0  0  0
   -8.2270    4.0839  -18.7243 C   0  0  0  0  0  0  0  0  0  0  0  0
   -6.9999    4.6648  -18.4676 C   0  0  0  0  0  0  0  0  0  0  0  0
   -6.6389    5.1940  -17.2239 C   0  0  0  0  0  0  0  0  0  0  0  0
   -5.2613    5.8224  -17.3551 C   0  0  0  0  0  0  0  0  0  0  0  0
   -5.3117    7.3531  -17.4847 C   0  0  0  0  0  0  0  0  0  0  0  0
   -4.2438    5.4302  -16.2908 C   0  0  0  0  0  0  0  0  0  0  0  0
   -4.8288    5.3150  -18.7569 C   0  0  0  0  0  0  0  0  0  0  0  0
   -3.7222    5.3988  -19.2691 O   0  0  0  0  0  0  0  0  0  0  0  0
   -5.9533    4.7875  -19.3676 N   0  0  0  0  0  0  0  0  0  0  0  0
   -7.8673    4.0568  -11.4239 C   0  0  0  0  0  0  0  0  0  0  0  0
   -8.8220    3.7067   -6.4851 C   0  0  0  0  0  0  0  0  0  0  0  0
   -9.8556    3.7915   -5.3645 C   0  0  2  0  0  0  0  0  0  0  0  0
   -9.2457    4.2064   -4.0344 C   0  0  0  0  0  0  0  0  0  0  0  0
  2  1  1  6
  2  3  1  0
  3  4  1  0
  4  5  1  0
  5  6  1  0
  6  7  1  0
  7  8  2  0
  8  9  1  0
  9 10  2  0
 10 11  1  0
 11 12  1  0
 12 13  1  0
 13 14  2  0
 13 15  1  0
 15 16  2  0
 16 17  1  0
 17 18  2  0
 18 19  1  0
 19 20  2  0
 20 21  1  0
 21 22  1  0
 21 23  1  0
 21 24  1  0
 24 25  2  0
 24 26  1  0
 11 27  2  0
  4 28  1  0
 28 29  1  0
 29 30  1  1
 29  2  1  0
 27  7  1  0
 20 15  1  0
 26 19  1  0
M  END
>  <name>  (1086) 
P138937

>  <alias>  (1086) 
None

>  <smina_score_min>  (1086) 
-9.744

>  <exports>  (1086) 
['/opt/xchem-fragalysis-2/maxwin/BulkDock/OUTPUTS/openbind_xx01zvns2b_c2_elabs_1LOUTNY.sdf', '/opt/xchem-fragalysis-2/maxwin/BulkDock/OUTPUTS/openbind_xx01zvns2b_c2_elabs_1LSYIIV.sdf']

>  <tags>  (1086) 
syndirella_placed,openbind_xx01zvns2b_c2_elabs,openbind_xx01zvns2b_c2_elabs_scored_6.2plus,syndirella_product,openbind_xx01zvns2b_c2_elabs_scored,openbind_xx01zvns2b_c1_elabs_filtered,openbind_xx01zvns2b_c2_elabs_scored_top80percent,BulkDock Fragalysis export

>  <subsites>  (1086) 
1 - Z4590/B/203/1

>  <smiles>  (1086) 
C[C@H]1CN(CCc2cccc(NC(=O)c3cccc4c3C(C)(C)C(=O)N4)c2)C[C@@H]1C

>  <HIPPO Pose ID>  (1086) 
138937

>  <energy_score>  (1086) 
-44.500029

>  <inchikey>  (1086) 
BSAZUZZYQLWZJI-IRXDYDNUSA-N

>  <gnina_score_min>  (1086) 
6.304

>  <gnina_score>  (1086) 
6.126

>  <ref_mols>  (1086) 
Z3758a

>  <HIPPO Compound ID>  (1086) 
197202

>  <distance_score>  (1086) 
0.715397

>  <rmsd(smina/fragmenstein)>  (1086) 
0.408

>  <ref_pdb>  (1086) 
Z3758a

>  <inspiration_score>  (1086) 
None

$$$$
P138949
     RDKit          3D

 31 34  0  0  0  0  0  0  0  0999 V2000
   -4.9064    1.1884  -10.1307 C   0  0  0  0  0  0  0  0  0  0  0  0
   -6.2701    1.3813   -9.7447 N   0  0  0  0  0  0  0  0  0  0  0  0
   -7.5283    1.6494  -10.6024 C   0  0  0  0  0  0  0  0  0  0  0  0
   -7.6365    1.8315  -11.7513 O   0  0  0  0  0  0  0  0  0  0  0  0
   -8.7601    1.6659   -9.6765 C   0  0  0  0  0  0  0  0  0  0  0  0
   -8.7733    2.6649   -8.5653 C   0  0  0  0  0  0  0  0  0  0  0  0
   -8.7189    4.0685   -8.9095 N   0  0  0  0  0  0  0  0  0  0  0  0
   -7.9705    4.7371   -7.8580 C   0  0  0  0  0  0  0  0  0  0  0  0
   -8.2207    6.2178   -7.9662 C   0  0  0  0  0  0  0  0  0  0  0  0
   -8.0590    6.7363   -9.3699 C   0  0  0  0  0  0  0  0  0  0  0  0
   -7.9492    8.1155   -9.5149 C   0  0  0  0  0  0  0  0  0  0  0  0
   -7.7312    8.6578  -10.7629 C   0  0  0  0  0  0  0  0  0  0  0  0
   -7.6258    7.8242  -11.8685 C   0  0  0  0  0  0  0  0  0  0  0  0
   -7.7741    6.4342  -11.7719 C   0  0  0  0  0  0  0  0  0  0  0  0
   -7.6858    5.7436  -12.9971 N   0  0  0  0  0  0  0  0  0  0  0  0
   -7.1525    6.2115  -14.3868 C   0  0  0  0  0  0  0  0  0  0  0  0
   -6.6357    7.2140  -14.7024 O   0  0  0  0  0  0  0  0  0  0  0  0
   -7.4208    5.2932  -15.5434 C   0  0  0  0  0  0  0  0  0  0  0  0
   -8.6978    4.7064  -15.6405 C   0  0  0  0  0  0  0  0  0  0  0  0
   -9.1641    4.1497  -16.8493 C   0  0  0  0  0  0  0  0  0  0  0  0
   -8.3621    4.1313  -17.9853 C   0  0  0  0  0  0  0  0  0  0  0  0
   -7.1016    4.6786  -17.8728 C   0  0  0  0  0  0  0  0  0  0  0  0
   -6.6160    5.2805  -16.6974 C   0  0  0  0  0  0  0  0  0  0  0  0
   -5.2295    5.8414  -17.0123 C   0  0  0  0  0  0  0  0  0  0  0  0
   -5.1991    7.3573  -17.2824 C   0  0  0  0  0  0  0  0  0  0  0  0
   -4.1429    5.4553  -16.0151 C   0  0  0  0  0  0  0  0  0  0  0  0
   -4.9475    5.2216  -18.4078 C   0  0  0  0  0  0  0  0  0  0  0  0
   -3.8909    5.2324  -19.0235 O   0  0  0  0  0  0  0  0  0  0  0  0
   -6.1436    4.7084  -18.8745 N   0  0  0  0  0  0  0  0  0  0  0  0
   -8.0328    5.8798  -10.5012 C   0  0  0  0  0  0  0  0  0  0  0  0
   -8.1570    4.4046  -10.2401 C   0  0  0  0  0  0  0  0  0  0  0  0
  1  2  1  0
  2  3  1  0
  3  4  2  0
  3  5  1  0
  5  6  1  0
  6  7  1  0
  7  8  1  0
  8  9  1  0
  9 10  1  0
 10 11  2  0
 11 12  1  0
 12 13  2  0
 13 14  1  0
 14 15  1  0
 15 16  1  0
 16 17  2  0
 16 18  1  0
 18 19  2  0
 19 20  1  0
 20 21  2  0
 21 22  1  0
 22 23  2  0
 23 24  1  0
 24 25  1  0
 24 26  1  0
 24 27  1  0
 27 28  2  0
 27 29  1  0
 14 30  2  0
 30 31  1  0
 31  7  1  0
 30 10  1  0
 23 18  1  0
 29 22  1  0
M  END
>  <name>  (1087) 
P138949

>  <alias>  (1087) 
None

>  <smina_score_min>  (1087) 
-9.097

>  <exports>  (1087) 
['/opt/xchem-fragalysis-2/maxwin/BulkDock/OUTPUTS/openbind_xx01zvns2b_c2_elabs_1LOUTNY.sdf', '/opt/xchem-fragalysis-2/maxwin/BulkDock/OUTPUTS/openbind_xx01zvns2b_c2_elabs_1LSYIIV.sdf']

>  <tags>  (1087) 
syndirella_placed,openbind_xx01zvns2b_c2_elabs,openbind_xx01zvns2b_c2_elabs_scored_6.2plus,syndirella_product,openbind_xx01zvns2b_c2_elabs_scored,openbind_xx01zvns2b_c1_elabs_filtered,openbind_xx01zvns2b_c2_elabs_scored_top80percent,BulkDock Fragalysis export

>  <subsites>  (1087) 
1 - Z4590/B/203/1

>  <smiles>  (1087) 
CNC(=O)CCN1CCc2cccc(NC(=O)c3cccc4c3C(C)(C)C(=O)N4)c2C1

>  <HIPPO Pose ID>  (1087) 
138949

>  <energy_score>  (1087) 
-7.666425

>  <inchikey>  (1087) 
LVNUWRNIXGWHMX-UHFFFAOYSA-N

>  <gnina_score_min>  (1087) 
6.269

>  <gnina_score>  (1087) 
6.197

>  <ref_mols>  (1087) 
Z3758a

>  <HIPPO Compound ID>  (1087) 
197224

>  <distance_score>  (1087) 
1.678263

>  <rmsd(smina/fragmenstein)>  (1087) 
1.348

>  <ref_pdb>  (1087) 
Z3758a

>  <inspiration_score>  (1087) 
None

$$$$
P138950
     RDKit          3D

 31 34  0  0  0  0  0  0  0  0999 V2000
  -10.1269    4.0861   -5.0336 C   0  0  0  0  0  0  0  0  0  0  0  0
  -10.2701    2.7721   -5.6450 N   0  0  0  0  0  0  0  0  0  0  0  0
  -11.5744    2.2008   -5.3773 C   0  0  0  0  0  0  0  0  0  0  0  0
  -10.0706    2.8309   -7.0976 C   0  0  0  0  0  0  0  0  0  0  0  0
   -9.3011    1.6346   -7.6486 C   0  0  0  0  0  0  0  0  0  0  0  0
   -8.8138    1.8269   -9.1069 C   0  0  0  0  0  0  0  0  0  0  0  0
   -8.4100    3.1906   -9.3904 N   0  0  0  0  0  0  0  0  0  0  0  0
   -7.3322    3.6482   -8.5286 C   0  0  0  0  0  0  0  0  0  0  0  0
   -7.4836    5.1473   -8.4022 C   0  0  0  0  0  0  0  0  0  0  0  0
   -7.7165    5.8059   -9.7313 C   0  0  0  0  0  0  0  0  0  0  0  0
   -7.7102    7.2036   -9.7222 C   0  0  0  0  0  0  0  0  0  0  0  0
   -7.7791    7.8885  -10.9096 C   0  0  0  0  0  0  0  0  0  0  0  0
   -7.7957    7.1680  -12.0938 C   0  0  0  0  0  0  0  0  0  0  0  0
   -7.8278    5.7581  -12.1298 C   0  0  0  0  0  0  0  0  0  0  0  0
   -7.7299    5.2177  -13.4158 N   0  0  0  0  0  0  0  0  0  0  0  0
   -7.2413    5.8580  -14.7435 C   0  0  0  0  0  0  0  0  0  0  0  0
   -6.7740    6.9093  -14.9501 O   0  0  0  0  0  0  0  0  0  0  0  0
   -7.4909    5.0601  -15.9711 C   0  0  0  0  0  0  0  0  0  0  0  0
   -8.7584    4.4707  -16.1401 C   0  0  0  0  0  0  0  0  0  0  0  0
   -9.1721    3.9911  -17.3954 C   0  0  0  0  0  0  0  0  0  0  0  0
   -8.3204    4.0551  -18.4945 C   0  0  0  0  0  0  0  0  0  0  0  0
   -7.0706    4.6081  -18.3052 C   0  0  0  0  0  0  0  0  0  0  0  0
   -6.6423    5.1439  -17.0832 C   0  0  0  0  0  0  0  0  0  0  0  0
   -5.2700    5.7742  -17.3092 C   0  0  0  0  0  0  0  0  0  0  0  0
   -4.1948    5.4218  -16.2879 C   0  0  0  0  0  0  0  0  0  0  0  0
   -5.3165    7.3002  -17.5190 C   0  0  0  0  0  0  0  0  0  0  0  0
   -4.9074    5.2238  -18.7129 C   0  0  0  0  0  0  0  0  0  0  0  0
   -3.8228    5.2802  -19.2743 O   0  0  0  0  0  0  0  0  0  0  0  0
   -6.0689    4.7068  -19.2591 N   0  0  0  0  0  0  0  0  0  0  0  0
   -7.8986    5.0481  -10.9257 C   0  0  0  0  0  0  0  0  0  0  0  0
   -8.0928    3.5397  -10.7893 C   0  0  0  0  0  0  0  0  0  0  0  0
  1  2  1  0
  2  3  1  0
  2  4  1  0
  4  5  1  0
  5  6  1  0
  6  7  1  0
  7  8  1  0
  8  9  1  0
  9 10  1  0
 10 11  2  0
 11 12  1  0
 12 13  2  0
 13 14  1  0
 14 15  1  0
 15 16  1  0
 16 17  2  0
 16 18  1  0
 18 19  2  0
 19 20  1  0
 20 21  2  0
 21 22  1  0
 22 23  2  0
 23 24  1  0
 24 25  1  0
 24 26  1  0
 24 27  1  0
 27 28  2  0
 27 29  1  0
 14 30  2  0
 30 31  1  0
 31  7  1  0
 30 10  1  0
 23 18  1  0
 29 22  1  0
M  END
>  <name>  (1088) 
P138950

>  <alias>  (1088) 
None

>  <smina_score_min>  (1088) 
-9.056

>  <exports>  (1088) 
['/opt/xchem-fragalysis-2/maxwin/BulkDock/OUTPUTS/openbind_xx01zvns2b_c2_elabs_1LOUTNY.sdf', '/opt/xchem-fragalysis-2/maxwin/BulkDock/OUTPUTS/openbind_xx01zvns2b_c2_elabs_1LSYIIV.sdf']

>  <tags>  (1088) 
syndirella_placed,openbind_xx01zvns2b_c2_elabs,openbind_xx01zvns2b_c2_elabs_scored_6.2plus,syndirella_product,openbind_xx01zvns2b_c2_elabs_scored,openbind_xx01zvns2b_c1_elabs_filtered,openbind_xx01zvns2b_c2_elabs_scored_top80percent,BulkDock Fragalysis export

>  <subsites>  (1088) 
1 - Z4590/B/203/1

>  <smiles>  (1088) 
CN(C)CCCN1CCc2cccc(NC(=O)c3cccc4c3C(C)(C)C(=O)N4)c2C1

>  <HIPPO Pose ID>  (1088) 
138950

>  <energy_score>  (1088) 
-38.515427

>  <inchikey>  (1088) 
WUQRDYIZZJIGGV-UHFFFAOYSA-N

>  <gnina_score_min>  (1088) 
6.486

>  <gnina_score>  (1088) 
6.31

>  <ref_mols>  (1088) 
Z3758a

>  <HIPPO Compound ID>  (1088) 
197225

>  <distance_score>  (1088) 
1.195626

>  <rmsd(smina/fragmenstein)>  (1088) 
0.818

>  <ref_pdb>  (1088) 
Z3758a

>  <inspiration_score>  (1088) 
None

$$$$
P138954
     RDKit          3D

 32 34  0  0  0  0  0  0  0  0999 V2000
   -7.7784    7.6382  -12.2617 C   0  0  0  0  0  0  0  0  0  0  0  0
   -7.8749    6.3153  -11.5639 C   0  0  0  0  0  0  0  0  0  0  0  0
   -8.0166    6.3618  -10.1605 C   0  0  0  0  0  0  0  0  0  0  0  0
   -8.1985    5.2074   -9.3957 C   0  0  0  0  0  0  0  0  0  0  0  0
   -8.2557    3.9636  -10.0120 C   0  0  0  0  0  0  0  0  0  0  0  0
   -8.4441    2.6555   -9.2719 C   0  0  0  0  0  0  0  0  0  0  0  0
   -9.2020    2.6369   -7.9439 C   0  0  0  0  0  0  0  0  0  0  0  0
   -8.4184    3.0848   -6.8245 N   0  0  0  0  0  0  0  0  0  0  0  0
   -8.7025    4.1536   -5.7854 C   0  0  0  0  0  0  0  0  0  0  0  0
   -9.6489    4.8006   -5.6108 O   0  0  0  0  0  0  0  0  0  0  0  0
   -7.5681    4.2286   -5.0278 O   0  0  0  0  0  0  0  0  0  0  0  0
   -7.4974    5.1583   -3.9163 C   0  0  0  0  0  0  0  0  0  0  0  0
   -8.5096    4.7919   -2.8241 C   0  0  0  0  0  0  0  0  0  0  0  0
   -7.6542    6.6117   -4.3808 C   0  0  0  0  0  0  0  0  0  0  0  0
   -6.0795    4.9872   -3.3494 C   0  0  0  0  0  0  0  0  0  0  0  0
   -8.0779    3.9134  -11.4086 C   0  0  0  0  0  0  0  0  0  0  0  0
   -7.8727    5.0636  -12.1958 C   0  0  0  0  0  0  0  0  0  0  0  0
   -7.7448    4.8056  -13.5716 N   0  0  0  0  0  0  0  0  0  0  0  0
   -7.2647    5.7203  -14.7271 C   0  0  0  0  0  0  0  0  0  0  0  0
   -6.8287    6.8039  -14.7038 O   0  0  0  0  0  0  0  0  0  0  0  0
   -7.5144    5.0969  -16.0579 C   0  0  0  0  0  0  0  0  0  0  0  0
   -8.7775    4.5088  -16.2900 C   0  0  0  0  0  0  0  0  0  0  0  0
   -9.1419    4.0365  -17.5601 C   0  0  0  0  0  0  0  0  0  0  0  0
   -8.2454    4.1205  -18.6182 C   0  0  0  0  0  0  0  0  0  0  0  0
   -7.0105    4.6877  -18.3704 C   0  0  0  0  0  0  0  0  0  0  0  0
   -6.6276    5.2078  -17.1260 C   0  0  0  0  0  0  0  0  0  0  0  0
   -5.2430    5.8186  -17.2773 C   0  0  0  0  0  0  0  0  0  0  0  0
   -4.2093    5.4123  -16.2336 C   0  0  0  0  0  0  0  0  0  0  0  0
   -5.2815    7.3505  -17.4010 C   0  0  0  0  0  0  0  0  0  0  0  0
   -4.8360    5.3126  -18.6888 C   0  0  0  0  0  0  0  0  0  0  0  0
   -3.7358    5.3920  -19.2163 O   0  0  0  0  0  0  0  0  0  0  0  0
   -5.9743    4.7995  -19.2844 N   0  0  0  0  0  0  0  0  0  0  0  0
  1  2  1  0
  2  3  2  0
  3  4  1  0
  4  5  2  0
  5  6  1  0
  6  7  1  0
  7  8  1  0
  8  9  1  0
  9 10  2  0
  9 11  1  0
 11 12  1  0
 12 13  1  0
 12 14  1  0
 12 15  1  0
  5 16  1  0
 16 17  2  0
 17 18  1  0
 18 19  1  0
 19 20  2  0
 19 21  1  0
 21 22  2  0
 22 23  1  0
 23 24  2  0
 24 25  1  0
 25 26  2  0
 26 27  1  0
 27 28  1  0
 27 29  1  0
 27 30  1  0
 30 31  2  0
 30 32  1  0
 17  2  1  0
 26 21  1  0
 32 25  1  0
M  END
>  <name>  (1089) 
P138954

>  <alias>  (1089) 
None

>  <smina_score_min>  (1089) 
-9.238

>  <exports>  (1089) 
['/opt/xchem-fragalysis-2/maxwin/BulkDock/OUTPUTS/openbind_xx01zvns2b_c2_elabs_1LOUTNY.sdf', '/opt/xchem-fragalysis-2/maxwin/BulkDock/OUTPUTS/openbind_xx01zvns2b_c2_elabs_1LSYIIV.sdf']

>  <tags>  (1089) 
syndirella_placed,openbind_xx01zvns2b_c2_elabs,openbind_xx01zvns2b_c2_elabs_scored_6.2plus,syndirella_product,openbind_xx01zvns2b_c2_elabs_scored,openbind_xx01zvns2b_c1_elabs_filtered,openbind_xx01zvns2b_c2_elabs_scored_top80percent,BulkDock Fragalysis export

>  <subsites>  (1089) 
1 - Z4590/B/203/1

>  <smiles>  (1089) 
Cc1ccc(CCNC(=O)OC(C)(C)C)cc1NC(=O)c1cccc2c1C(C)(C)C(=O)N2

>  <HIPPO Pose ID>  (1089) 
138954

>  <energy_score>  (1089) 
-42.795862

>  <inchikey>  (1089) 
WIVHIOSTFMYEOE-UHFFFAOYSA-N

>  <gnina_score_min>  (1089) 
6.388

>  <gnina_score>  (1089) 
6.124

>  <ref_mols>  (1089) 
Z3758a

>  <HIPPO Compound ID>  (1089) 
197242

>  <distance_score>  (1089) 
0.773662

>  <rmsd(smina/fragmenstein)>  (1089) 
0.888

>  <ref_pdb>  (1089) 
Z3758a

>  <inspiration_score>  (1089) 
None

$$$$
P139106
     RDKit          3D

 25 28  0  0  0  0  0  0  0  0999 V2000
  -10.2508    3.0359   -5.1261 C   0  0  0  0  0  0  0  0  0  0  0  0
  -10.1101    2.3137   -6.4600 C   0  0  0  0  0  0  0  0  0  0  0  0
   -8.9031    2.6569   -7.1983 N   0  0  0  0  0  0  0  0  0  0  0  0
   -8.6461    4.0934   -7.3614 C   0  0  0  0  0  0  0  0  0  0  0  0
   -8.3760    4.3083   -8.8095 C   0  0  0  0  0  0  0  0  0  0  0  0
   -8.0708    5.4895   -9.4566 C   0  0  0  0  0  0  0  0  0  0  0  0
   -7.8985    5.4554  -10.8397 C   0  0  0  0  0  0  0  0  0  0  0  0
   -8.0265    4.2541  -11.5560 C   0  0  0  0  0  0  0  0  0  0  0  0
   -7.8696    4.2508  -12.9431 N   0  0  0  0  0  0  0  0  0  0  0  0
   -7.4423    5.3839  -13.9103 C   0  0  0  0  0  0  0  0  0  0  0  0
   -7.2301    6.5150  -13.7054 O   0  0  0  0  0  0  0  0  0  0  0  0
   -7.4077    4.9164  -15.3078 C   0  0  0  0  0  0  0  0  0  0  0  0
   -8.5965    4.4868  -15.9187 C   0  0  0  0  0  0  0  0  0  0  0  0
   -8.6306    4.2675  -17.2945 C   0  0  0  0  0  0  0  0  0  0  0  0
  -10.1210    3.8861  -18.0554 Cl  0  0  0  0  0  0  0  0  0  0  0  0
   -7.4993    4.4316  -18.0946 C   0  0  0  0  0  0  0  0  0  0  0  0
   -6.3283    4.8284  -17.4500 C   0  0  0  0  0  0  0  0  0  0  0  0
   -5.0707    5.0789  -17.9309 N   0  0  0  0  0  0  0  0  0  0  0  0
   -4.2759    5.4419  -16.8740 C   0  0  0  0  0  0  0  0  0  0  0  0
   -2.8456    5.7813  -17.0469 C   0  0  0  0  0  0  0  0  0  0  0  0
   -4.9618    5.4537  -15.7498 N   0  0  0  0  0  0  0  0  0  0  0  0
   -6.2445    5.0740  -16.0823 C   0  0  0  0  0  0  0  0  0  0  0  0
   -8.3332    3.0646  -10.8827 C   0  0  0  0  0  0  0  0  0  0  0  0
   -8.5069    3.1121   -9.5046 C   0  0  0  0  0  0  0  0  0  0  0  0
   -8.8636    2.0190   -8.5439 C   0  0  0  0  0  0  0  0  0  0  0  0
  1  2  1  0
  2  3  1  0
  3  4  1  0
  4  5  1  0
  5  6  2  0
  6  7  1  0
  7  8  2  0
  8  9  1  0
  9 10  1  0
 10 11  2  0
 10 12  1  0
 12 13  2  0
 13 14  1  0
 14 15  1  0
 14 16  2  0
 16 17  1  0
 17 18  1  0
 18 19  1  0
 19 20  1  0
 19 21  2  0
 21 22  1  0
  8 23  1  0
 23 24  2  0
 24 25  1  0
 25  3  1  0
 24  5  1  0
 22 12  1  0
 22 17  2  0
M  END
>  <name>  (1090) 
P139106

>  <alias>  (1090) 
None

>  <smina_score_min>  (1090) 
-8.817

>  <exports>  (1090) 
['/opt/xchem-fragalysis-2/maxwin/BulkDock/OUTPUTS/openbind_xx01zvns2b_c2_elabs_1LOUTNY.sdf', '/opt/xchem-fragalysis-2/maxwin/BulkDock/OUTPUTS/openbind_xx01zvns2b_c2_elabs_1LSYIIV.sdf']

>  <tags>  (1090) 
syndirella_placed,openbind_xx01zvns2b_c2_elabs,openbind_xx01zvns2b_c2_elabs_scored_6.2plus,syndirella_product,openbind_xx01zvns2b_c2_elabs_scored,openbind_xx01zvns2b_c1_elabs_filtered,openbind_xx01zvns2b_c2_elabs_scored_top80percent,BulkDock Fragalysis export

>  <subsites>  (1090) 
1 - Z4590/B/203/1

>  <smiles>  (1090) 
CCN1Cc2ccc(NC(=O)c3cc(Cl)cc4[nH]c(C)nc34)cc2C1

>  <HIPPO Pose ID>  (1090) 
139106

>  <energy_score>  (1090) 
-26.5601

>  <inchikey>  (1090) 
KLURPVMJACZEHV-UHFFFAOYSA-N

>  <gnina_score_min>  (1090) 
6.235

>  <gnina_score>  (1090) 
6.107

>  <ref_mols>  (1090) 
Z4963a

>  <HIPPO Compound ID>  (1090) 
190889

>  <distance_score>  (1090) 
0.564899

>  <rmsd(smina/fragmenstein)>  (1090) 
0.434

>  <ref_pdb>  (1090) 
Z4963a

>  <inspiration_score>  (1090) 
None

$$$$
P139114
     RDKit          3D

 27 30  0  0  0  0  0  0  0  0999 V2000
   -8.9967    4.1196   -2.9001 C   0  0  0  0  0  0  0  0  0  0  0  0
   -8.7664    3.8798   -4.3844 C   0  0  0  0  0  0  0  0  0  0  0  0
   -9.9048    3.0796   -5.0349 C   0  0  0  0  0  0  0  0  0  0  0  0
   -9.4737    2.2501   -6.2616 C   0  0  0  0  0  0  0  0  0  0  0  0
   -9.4529    3.0034   -7.4996 N   0  0  0  0  0  0  0  0  0  0  0  0
   -8.5858    4.1842   -7.5062 C   0  0  0  0  0  0  0  0  0  0  0  0
   -8.3099    4.4029   -8.9524 C   0  0  0  0  0  0  0  0  0  0  0  0
   -7.8783    5.5476   -9.5849 C   0  0  0  0  0  0  0  0  0  0  0  0
   -7.7229    5.5001  -10.9668 C   0  0  0  0  0  0  0  0  0  0  0  0
   -7.9750    4.3185  -11.6859 C   0  0  0  0  0  0  0  0  0  0  0  0
   -7.8340    4.3104  -13.0711 N   0  0  0  0  0  0  0  0  0  0  0  0
   -7.3374    5.4132  -14.0376 C   0  0  0  0  0  0  0  0  0  0  0  0
   -7.0424    6.5246  -13.8308 O   0  0  0  0  0  0  0  0  0  0  0  0
   -7.3543    4.9420  -15.4315 C   0  0  0  0  0  0  0  0  0  0  0  0
   -8.5645    4.5150  -16.0009 C   0  0  0  0  0  0  0  0  0  0  0  0
   -8.6358    4.2691  -17.3693 C   0  0  0  0  0  0  0  0  0  0  0  0
  -10.1498    3.8896  -18.0807 Cl  0  0  0  0  0  0  0  0  0  0  0  0
   -7.5230    4.4049  -18.1996 C   0  0  0  0  0  0  0  0  0  0  0  0
   -6.3325    4.8074  -17.5953 C   0  0  0  0  0  0  0  0  0  0  0  0
   -5.0870    5.0433  -18.1135 N   0  0  0  0  0  0  0  0  0  0  0  0
   -4.2599    5.4106  -17.0829 C   0  0  0  0  0  0  0  0  0  0  0  0
   -2.8304    5.7271  -17.2997 C   0  0  0  0  0  0  0  0  0  0  0  0
   -4.9155    5.4456  -15.9414 N   0  0  0  0  0  0  0  0  0  0  0  0
   -6.2101    5.0755  -16.2359 C   0  0  0  0  0  0  0  0  0  0  0  0
   -8.3948    3.1581  -11.0247 C   0  0  0  0  0  0  0  0  0  0  0  0
   -8.5739    3.2248   -9.6537 C   0  0  0  0  0  0  0  0  0  0  0  0
   -9.0600    2.1928   -8.6801 C   0  0  0  0  0  0  0  0  0  0  0  0
  1  2  1  0
  2  3  1  0
  3  4  1  0
  4  5  1  0
  5  6  1  0
  6  7  1  0
  7  8  2  0
  8  9  1  0
  9 10  2  0
 10 11  1  0
 11 12  1  0
 12 13  2  0
 12 14  1  0
 14 15  2  0
 15 16  1  0
 16 17  1  0
 16 18  2  0
 18 19  1  0
 19 20  1  0
 20 21  1  0
 21 22  1  0
 21 23  2  0
 23 24  1  0
 10 25  1  0
 25 26  2  0
 26 27  1  0
 27  5  1  0
 26  7  1  0
 24 14  1  0
 24 19  2  0
M  END
>  <name>  (1091) 
P139114

>  <alias>  (1091) 
None

>  <smina_score_min>  (1091) 
-8.691

>  <exports>  (1091) 
['/opt/xchem-fragalysis-2/maxwin/BulkDock/OUTPUTS/openbind_xx01zvns2b_c2_elabs_1LOUTNY.sdf', '/opt/xchem-fragalysis-2/maxwin/BulkDock/OUTPUTS/openbind_xx01zvns2b_c2_elabs_1LSYIIV.sdf']

>  <tags>  (1091) 
syndirella_placed,openbind_xx01zvns2b_c2_elabs,openbind_xx01zvns2b_c2_elabs_scored_6.2plus,syndirella_product,openbind_xx01zvns2b_c2_elabs_scored,openbind_xx01zvns2b_c1_elabs_filtered,openbind_xx01zvns2b_c2_elabs_scored_top80percent,BulkDock Fragalysis export

>  <subsites>  (1091) 
1 - Z4590/B/203/1

>  <smiles>  (1091) 
CCCCN1Cc2ccc(NC(=O)c3cc(Cl)cc4[nH]c(C)nc34)cc2C1

>  <HIPPO Pose ID>  (1091) 
139114

>  <energy_score>  (1091) 
-32.379782

>  <inchikey>  (1091) 
AMJAVXIGMUPKMR-UHFFFAOYSA-N

>  <gnina_score_min>  (1091) 
6.343

>  <gnina_score>  (1091) 
6.141

>  <ref_mols>  (1091) 
Z4963a

>  <HIPPO Compound ID>  (1091) 
190899

>  <distance_score>  (1091) 
0.685526

>  <rmsd(smina/fragmenstein)>  (1091) 
0.581

>  <ref_pdb>  (1091) 
Z4963a

>  <inspiration_score>  (1091) 
None

$$$$
P139133
     RDKit          3D

 32 36  0  0  0  0  0  0  0  0999 V2000
   -2.7432    5.6637  -17.7622 C   0  0  0  0  0  0  0  0  0  0  0  0
   -4.1711    5.3933  -17.4797 C   0  0  0  0  0  0  0  0  0  0  0  0
   -4.7857    5.4994  -16.3197 N   0  0  0  0  0  0  0  0  0  0  0  0
   -6.0915    5.1352  -16.5568 C   0  0  0  0  0  0  0  0  0  0  0  0
   -7.2095    5.0629  -15.7209 C   0  0  0  0  0  0  0  0  0  0  0  0
   -7.1516    5.5879  -14.3595 C   0  0  0  0  0  0  0  0  0  0  0  0
   -6.9410    6.7203  -14.1814 O   0  0  0  0  0  0  0  0  0  0  0  0
   -7.5004    4.4689  -13.3623 N   0  0  0  0  0  0  0  0  0  0  0  0
   -7.7465    4.5219  -12.0049 C   0  0  0  0  0  0  0  0  0  0  0  0
   -7.7724    5.7655  -11.3438 C   0  0  0  0  0  0  0  0  0  0  0  0
   -8.0749    5.8441   -9.9934 C   0  0  0  0  0  0  0  0  0  0  0  0
   -8.3334    4.6551   -9.3559 C   0  0  0  0  0  0  0  0  0  0  0  0
   -8.2942    3.4179   -9.9875 C   0  0  0  0  0  0  0  0  0  0  0  0
   -8.0114    3.3295  -11.3305 C   0  0  0  0  0  0  0  0  0  0  0  0
   -8.6208    2.3431   -9.0212 C   0  0  0  0  0  0  0  0  0  0  0  0
   -8.8156    3.0980   -7.7820 N   0  0  0  0  0  0  0  0  0  0  0  0
   -8.8901    2.4027   -6.5143 C   0  0  1  0  0  0  0  0  0  0  0  0
   -8.9770    3.3039   -5.2854 C   0  0  0  0  0  0  0  0  0  0  0  0
  -10.4154    3.5917   -4.9627 C   0  0  0  0  0  0  0  0  0  0  0  0
  -11.2293    2.3243   -4.9042 C   0  0  0  0  0  0  0  0  0  0  0  0
  -12.3303    2.2602   -4.3734 O   0  0  0  0  0  0  0  0  0  0  0  0
  -10.7613    1.2259   -5.5132 N   0  0  0  0  0  0  0  0  0  0  0  0
   -9.9673    1.3297   -6.5928 C   0  0  0  0  0  0  0  0  0  0  0  0
  -10.1300    0.5720   -7.5428 O   0  0  0  0  0  0  0  0  0  0  0  0
   -8.6795    4.4562   -7.9622 C   0  0  0  0  0  0  0  0  0  0  0  0
   -8.8022    5.3833   -7.1834 O   0  0  0  0  0  0  0  0  0  0  0  0
   -8.4441    4.6057  -16.2061 C   0  0  0  0  0  0  0  0  0  0  0  0
   -8.5665    4.2726  -17.5473 C   0  0  0  0  0  0  0  0  0  0  0  0
  -10.1101    3.8557  -18.1616 Cl  0  0  0  0  0  0  0  0  0  0  0  0
   -7.4811    4.3483  -18.4205 C   0  0  0  0  0  0  0  0  0  0  0  0
   -6.2661    4.7868  -17.8896 C   0  0  0  0  0  0  0  0  0  0  0  0
   -5.0411    4.9948  -18.4640 N   0  0  0  0  0  0  0  0  0  0  0  0
  1  2  1  0
  2  3  2  0
  3  4  1  0
  4  5  2  0
  5  6  1  0
  6  7  2  0
  6  8  1  0
  8  9  1  0
  9 10  2  0
 10 11  1  0
 11 12  2  0
 12 13  1  0
 13 14  2  0
 13 15  1  0
 15 16  1  0
 17 16  1  6
 17 18  1  0
 18 19  1  0
 19 20  1  0
 20 21  2  0
 20 22  1  0
 22 23  1  0
 23 24  2  0
 16 25  1  0
 25 26  2  0
  5 27  1  0
 27 28  2  0
 28 29  1  0
 28 30  1  0
 30 31  2  0
 31 32  1  0
 32  2  1  0
 31  4  1  0
 14  9  1  0
 23 17  1  0
 25 12  1  0
M  END
>  <name>  (1092) 
P139133

>  <alias>  (1092) 
None

>  <smina_score_min>  (1092) 
-9.651

>  <exports>  (1092) 
['/opt/xchem-fragalysis-2/maxwin/BulkDock/OUTPUTS/openbind_xx01zvns2b_c2_elabs_1LOUTNY.sdf', '/opt/xchem-fragalysis-2/maxwin/BulkDock/OUTPUTS/openbind_xx01zvns2b_c2_elabs_1LSYIIV.sdf']

>  <tags>  (1092) 
syndirella_placed,openbind_xx01zvns2b_c2_elabs,openbind_xx01zvns2b_c2_elabs_scored_6.2plus,syndirella_product,openbind_xx01zvns2b_c2_elabs_scored,openbind_xx01zvns2b_c1_elabs_filtered,openbind_xx01zvns2b_c2_elabs_scored_top80percent,BulkDock Fragalysis export

>  <subsites>  (1092) 
1 - Z4590/B/203/1

>  <smiles>  (1092) 
Cc1nc2c(C(=O)Nc3ccc4c(c3)CN([C@H]3CCC(=O)NC3=O)C4=O)cc(Cl)cc2[nH]1

>  <HIPPO Pose ID>  (1092) 
139133

>  <energy_score>  (1092) 
-31.273521

>  <inchikey>  (1092) 
DMKCCXVEGSZPPN-KRWDZBQOSA-N

>  <gnina_score_min>  (1092) 
6.508

>  <gnina_score>  (1092) 
6.507

>  <ref_mols>  (1092) 
Z4963a

>  <HIPPO Compound ID>  (1092) 
190921

>  <distance_score>  (1092) 
1.000565

>  <rmsd(smina/fragmenstein)>  (1092) 
0.792

>  <ref_pdb>  (1092) 
Z4963a

>  <inspiration_score>  (1092) 
None

$$$$
P139206
     RDKit          3D

 31 34  0  0  0  0  0  0  0  0999 V2000
   -1.1457    6.6947  -13.0596 C   0  0  0  0  0  0  0  0  0  0  0  0
   -1.6802    5.5013  -12.2615 C   0  0  0  0  0  0  0  0  0  0  0  0
   -0.8965    5.2810  -10.9625 C   0  0  0  0  0  0  0  0  0  0  0  0
   -1.5572    4.2358  -13.1232 C   0  0  0  0  0  0  0  0  0  0  0  0
   -3.1003    5.6397  -12.0139 O   0  0  0  0  0  0  0  0  0  0  0  0
   -3.5749    6.6387  -11.2321 C   0  0  0  0  0  0  0  0  0  0  0  0
   -2.9114    7.4945  -10.6685 O   0  0  0  0  0  0  0  0  0  0  0  0
   -4.9252    6.5219  -11.1179 N   0  0  0  0  0  0  0  0  0  0  0  0
   -5.8606    7.1859  -11.9947 C   0  0  0  0  0  0  0  0  0  0  0  0
   -7.2252    6.7954  -11.4358 C   0  0  0  0  0  0  0  0  0  0  0  0
   -6.9593    5.4554  -10.7169 C   0  0  1  0  0  0  0  0  0  0  0  0
   -8.0110    5.1114   -9.6517 C   0  0  0  0  0  0  0  0  0  0  0  0
   -7.9637    3.6104   -9.5800 C   0  0  0  0  0  0  0  0  0  0  0  0
   -8.4100    2.9249   -8.6798 O   0  0  0  0  0  0  0  0  0  0  0  0
   -7.3201    3.1442  -10.7000 N   0  0  0  0  0  0  0  0  0  0  0  0
   -6.8936    4.1897  -11.6001 C   0  0  1  0  0  0  0  0  0  0  0  0
   -7.7957    4.3025  -12.8560 C   0  0  0  0  0  0  0  0  0  0  0  0
   -8.9631    4.2450  -12.8054 O   0  0  0  0  0  0  0  0  0  0  0  0
   -6.8457    4.5351  -14.0753 N   0  0  0  0  0  0  0  0  0  0  0  0
   -7.1306    4.6441  -15.4396 C   0  0  0  0  0  0  0  0  0  0  0  0
   -8.4288    4.4702  -15.9181 C   0  0  0  0  0  0  0  0  0  0  0  0
   -8.6601    4.5007  -17.2868 C   0  0  0  0  0  0  0  0  0  0  0  0
  -10.2438    4.2848  -17.8954 Cl  0  0  0  0  0  0  0  0  0  0  0  0
   -7.6216    4.7415  -18.1755 C   0  0  0  0  0  0  0  0  0  0  0  0
   -6.3267    4.9571  -17.6941 C   0  0  0  0  0  0  0  0  0  0  0  0
   -5.2732    5.2255  -18.5747 C   0  0  0  0  0  0  0  0  0  0  0  0
   -3.9949    5.4254  -18.0735 C   0  0  0  0  0  0  0  0  0  0  0  0
   -3.8151    5.3453  -16.7058 C   0  0  0  0  0  0  0  0  0  0  0  0
   -4.8054    5.0854  -15.8238 N   0  0  0  0  0  0  0  0  0  0  0  0
   -6.0573    4.8976  -16.3085 C   0  0  0  0  0  0  0  0  0  0  0  0
   -5.5747    5.7193  -10.1054 C   0  0  0  0  0  0  0  0  0  0  0  0
  1  2  1  0
  2  3  1  0
  2  4  1  0
  2  5  1  0
  5  6  1  0
  6  7  2  0
  6  8  1  0
  8  9  1  0
  9 10  1  0
 11 10  1  6
 11 12  1  0
 12 13  1  0
 13 14  2  0
 13 15  1  0
 15 16  1  0
 16 17  1  6
 17 18  2  0
 17 19  1  0
 19 20  1  0
 20 21  2  0
 21 22  1  0
 22 23  1  0
 22 24  2  0
 24 25  1  0
 25 26  2  0
 26 27  1  0
 27 28  2  0
 28 29  1  0
 29 30  2  0
 11 31  1  0
 31  8  1  0
 16 11  1  0
 30 20  1  0
 30 25  1  0
M  END
>  <name>  (1093) 
P139206

>  <alias>  (1093) 
None

>  <smina_score_min>  (1093) 
-8.523

>  <exports>  (1093) 
['/opt/xchem-fragalysis-2/maxwin/BulkDock/OUTPUTS/openbind_xx01zvns2b_c2_elabs_1LOUTNY.sdf', '/opt/xchem-fragalysis-2/maxwin/BulkDock/OUTPUTS/openbind_xx01zvns2b_c2_elabs_1LSYIIV.sdf']

>  <tags>  (1093) 
syndirella_placed,openbind_xx01zvns2b_c2_elabs,openbind_xx01zvns2b_c2_elabs_scored_6.2plus,syndirella_product,openbind_xx01zvns2b_c2_elabs_scored,openbind_xx01zvns2b_c2_elabs_scored_top80percent,BulkDock Fragalysis export

>  <subsites>  (1093) 
1 - Z4590/B/203/1

>  <smiles>  (1093) 
CC(C)(C)OC(=O)N1CC[C@]2(CC(=O)N[C@H]2C(=O)Nc2cc(Cl)cc3cccnc23)C1

>  <HIPPO Pose ID>  (1093) 
139206

>  <energy_score>  (1093) 
-28.862004

>  <inchikey>  (1093) 
YUVLWEYVFYRDBW-AVRDEDQJSA-N

>  <gnina_score_min>  (1093) 
6.288

>  <gnina_score>  (1093) 
6.107

>  <ref_mols>  (1093) 
Z1752a

>  <HIPPO Compound ID>  (1093) 
190041

>  <distance_score>  (1093) 
0.951743

>  <rmsd(smina/fragmenstein)>  (1093) 
1.989

>  <ref_pdb>  (1093) 
Z1752a

>  <inspiration_score>  (1093) 
None

$$$$
P139215
     RDKit          3D

 31 34  0  0  0  0  0  0  0  0999 V2000
   -2.0145    7.1755   -6.0401 C   0  0  0  0  0  0  0  0  0  0  0  0
   -2.4370    7.9434   -7.2974 C   0  0  0  0  0  0  0  0  0  0  0  0
   -1.2782    8.1093   -8.2867 C   0  0  0  0  0  0  0  0  0  0  0  0
   -2.9252    9.3387   -6.8779 C   0  0  0  0  0  0  0  0  0  0  0  0
   -3.5872    7.3285   -7.9312 O   0  0  0  0  0  0  0  0  0  0  0  0
   -3.5344    6.0619   -8.4331 C   0  0  0  0  0  0  0  0  0  0  0  0
   -2.5441    5.3884   -8.3995 O   0  0  0  0  0  0  0  0  0  0  0  0
   -4.8138    5.7839   -8.9511 N   0  0  0  0  0  0  0  0  0  0  0  0
   -4.8990    6.2153  -10.3857 C   0  0  0  0  0  0  0  0  0  0  0  0
   -6.3085    6.0802  -10.9252 C   0  0  0  0  0  0  0  0  0  0  0  0
   -6.6812    4.7699  -10.3008 C   0  0  1  0  0  0  0  0  0  0  0  0
   -7.8982    4.8806   -9.3634 C   0  0  0  0  0  0  0  0  0  0  0  0
   -8.3615    3.4531   -9.2513 C   0  0  0  0  0  0  0  0  0  0  0  0
   -9.0675    3.0052   -8.3675 O   0  0  0  0  0  0  0  0  0  0  0  0
   -7.8318    2.7513  -10.3118 N   0  0  0  0  0  0  0  0  0  0  0  0
   -7.0313    3.5675  -11.1931 C   0  0  1  0  0  0  0  0  0  0  0  0
   -7.7819    3.9903  -12.4982 C   0  0  0  0  0  0  0  0  0  0  0  0
   -8.9621    4.1916  -12.4759 O   0  0  0  0  0  0  0  0  0  0  0  0
   -6.8187    4.1292  -13.5734 N   0  0  0  0  0  0  0  0  0  0  0  0
   -6.9910    4.4496  -14.9244 C   0  0  0  0  0  0  0  0  0  0  0  0
   -8.2547    4.4528  -15.5124 C   0  0  0  0  0  0  0  0  0  0  0  0
   -8.3834    4.6928  -16.8729 C   0  0  0  0  0  0  0  0  0  0  0  0
   -7.2577    5.0113  -17.6283 C   0  0  0  0  0  0  0  0  0  0  0  0
   -5.9716    5.0616  -17.0355 C   0  0  0  0  0  0  0  0  0  0  0  0
   -4.7836    5.4078  -17.7169 C   0  0  0  0  0  0  0  0  0  0  0  0
   -4.7670    5.9664  -19.5324 Br  0  0  0  0  0  0  0  0  0  0  0  0
   -3.5521    5.3904  -17.0707 C   0  0  0  0  0  0  0  0  0  0  0  0
   -3.5311    5.0367  -15.7426 C   0  0  0  0  0  0  0  0  0  0  0  0
   -4.6345    4.7220  -15.0383 N   0  0  0  0  0  0  0  0  0  0  0  0
   -5.8373    4.7403  -15.6661 C   0  0  0  0  0  0  0  0  0  0  0  0
   -5.3855    4.5235   -9.5267 C   0  0  0  0  0  0  0  0  0  0  0  0
  1  2  1  0
  2  3  1  0
  2  4  1  0
  2  5  1  0
  5  6  1  0
  6  7  2  0
  6  8  1  0
  8  9  1  0
  9 10  1  0
 11 10  1  6
 11 12  1  0
 12 13  1  0
 13 14  2  0
 13 15  1  0
 15 16  1  0
 16 17  1  6
 17 18  2  0
 17 19  1  0
 19 20  1  0
 20 21  2  0
 21 22  1  0
 22 23  2  0
 23 24  1  0
 24 25  2  0
 25 26  1  0
 25 27  1  0
 27 28  2  0
 28 29  1  0
 29 30  2  0
 11 31  1  0
 31  8  1  0
 16 11  1  0
 30 20  1  0
 30 24  1  0
M  END
>  <name>  (1094) 
P139215

>  <alias>  (1094) 
None

>  <smina_score_min>  (1094) 
-7.637

>  <exports>  (1094) 
['/opt/xchem-fragalysis-2/maxwin/BulkDock/OUTPUTS/openbind_xx01zvns2b_c2_elabs_1LOUTNY.sdf', '/opt/xchem-fragalysis-2/maxwin/BulkDock/OUTPUTS/openbind_xx01zvns2b_c2_elabs_1LSYIIV.sdf']

>  <tags>  (1094) 
syndirella_placed,openbind_xx01zvns2b_c2_elabs,openbind_xx01zvns2b_c2_elabs_scored_6.2plus,syndirella_product,openbind_xx01zvns2b_c2_elabs_scored,openbind_xx01zvns2b_c2_elabs_scored_top80percent,BulkDock Fragalysis export

>  <subsites>  (1094) 
1 - Z4590/B/203/1

>  <smiles>  (1094) 
CC(C)(C)OC(=O)N1CC[C@]2(CC(=O)N[C@H]2C(=O)Nc2cccc3c(Br)ccnc23)C1

>  <HIPPO Pose ID>  (1094) 
139215

>  <energy_score>  (1094) 
-11.86367

>  <inchikey>  (1094) 
BKUVPSFGESEASA-AVRDEDQJSA-N

>  <gnina_score_min>  (1094) 
6.23

>  <gnina_score>  (1094) 
5.732

>  <ref_mols>  (1094) 
Z1752a

>  <HIPPO Compound ID>  (1094) 
190049

>  <distance_score>  (1094) 
1.574921

>  <rmsd(smina/fragmenstein)>  (1094) 
3.378

>  <ref_pdb>  (1094) 
Z1752a

>  <inspiration_score>  (1094) 
None

$$$$
P139239
     RDKit          3D

 31 35  0  0  0  0  0  0  0  0999 V2000
   -6.6535    1.8820  -12.0211 C   0  0  0  0  0  0  0  0  0  0  0  0
   -5.8764    2.7837  -11.0863 C   0  0  0  0  0  0  0  0  0  0  0  0
   -6.5836    4.0440  -10.8562 N   0  0  0  0  0  0  0  0  0  0  0  0
   -7.4093    4.0955   -9.7492 C   0  0  0  0  0  0  0  0  0  0  0  0
   -7.6658    3.1426   -9.0230 O   0  0  0  0  0  0  0  0  0  0  0  0
   -7.9742    5.4072   -9.4186 C   0  0  0  0  0  0  0  0  0  0  0  0
   -8.3684    5.6381   -8.0945 C   0  0  0  0  0  0  0  0  0  0  0  0
   -8.8050    6.9001   -7.7145 C   0  0  0  0  0  0  0  0  0  0  0  0
   -8.9350    7.9008   -8.6730 C   0  0  0  0  0  0  0  0  0  0  0  0
   -8.5592    7.6628   -9.9964 C   0  0  0  0  0  0  0  0  0  0  0  0
   -8.0017    6.4313  -10.3714 C   0  0  0  0  0  0  0  0  0  0  0  0
   -7.3096    6.2749  -11.6282 N   0  0  0  0  0  0  0  0  0  0  0  0
   -6.7148    7.4607  -12.1252 C   0  0  0  0  0  0  0  0  0  0  0  0
   -7.2816    8.4229  -12.6193 O   0  0  0  0  0  0  0  0  0  0  0  0
   -5.2263    7.3490  -11.9035 C   0  0  0  0  0  0  0  0  0  0  0  0
   -5.0749    6.0375  -11.1224 C   0  0  0  0  0  0  0  0  0  0  0  0
   -6.2652    5.2322  -11.6503 C   0  0  1  0  0  0  0  0  0  0  0  0
   -5.8580    4.8230  -13.1527 C   0  0  0  0  0  0  0  0  0  0  0  0
   -4.7583    4.5155  -13.4209 O   0  0  0  0  0  0  0  0  0  0  0  0
   -7.1198    4.9584  -14.0607 N   0  0  0  0  0  0  0  0  0  0  0  0
   -7.2581    4.8394  -15.4552 C   0  0  0  0  0  0  0  0  0  0  0  0
   -8.5483    4.5900  -15.9293 C   0  0  0  0  0  0  0  0  0  0  0  0
   -8.7751    4.4842  -17.2949 C   0  0  0  0  0  0  0  0  0  0  0  0
  -10.3624    4.2547  -17.8826 Cl  0  0  0  0  0  0  0  0  0  0  0  0
   -7.7388    4.6386  -18.2002 C   0  0  0  0  0  0  0  0  0  0  0  0
   -6.4534    4.9282  -17.7411 C   0  0  0  0  0  0  0  0  0  0  0  0
   -5.4223    5.1412  -18.6653 C   0  0  0  0  0  0  0  0  0  0  0  0
   -4.1493    5.4526  -18.2176 C   0  0  0  0  0  0  0  0  0  0  0  0
   -3.9625    5.5608  -16.8576 C   0  0  0  0  0  0  0  0  0  0  0  0
   -4.9433    5.3844  -15.9480 N   0  0  0  0  0  0  0  0  0  0  0  0
   -6.1832    5.0345  -16.3553 C   0  0  0  0  0  0  0  0  0  0  0  0
  1  2  1  0
  2  3  1  0
  3  4  1  0
  4  5  2  0
  4  6  1  0
  6  7  2  0
  7  8  1  0
  8  9  2  0
  9 10  1  0
 10 11  2  0
 11 12  1  0
 12 13  1  0
 13 14  2  0
 13 15  1  0
 15 16  1  0
 16 17  1  0
 17 18  1  6
 18 19  2  0
 18 20  1  0
 20 21  1  0
 21 22  2  0
 22 23  1  0
 23 24  1  0
 23 25  2  0
 25 26  1  0
 26 27  2  0
 27 28  1  0
 28 29  2  0
 29 30  1  0
 30 31  2  0
 17  3  1  0
 31 21  1  0
 11  6  1  0
 17 12  1  0
 31 26  1  0
M  END
>  <name>  (1095) 
P139239

>  <alias>  (1095) 
None

>  <smina_score_min>  (1095) 
-7.774

>  <exports>  (1095) 
['/opt/xchem-fragalysis-2/maxwin/BulkDock/OUTPUTS/openbind_xx01zvns2b_c2_elabs_1LOUTNY.sdf', '/opt/xchem-fragalysis-2/maxwin/BulkDock/OUTPUTS/openbind_xx01zvns2b_c2_elabs_1LSYIIV.sdf']

>  <tags>  (1095) 
syndirella_placed,openbind_xx01zvns2b_c2_elabs,openbind_xx01zvns2b_c2_elabs_scored_6.2plus,syndirella_product,openbind_xx01zvns2b_c2_elabs_scored,openbind_xx01zvns2b_c2_elabs_scored_top80percent,BulkDock Fragalysis export

>  <subsites>  (1095) 
1 - Z4590/B/203/1

>  <smiles>  (1095) 
CCN1C(=O)c2ccccc2N2C(=O)CC[C@@]12C(=O)Nc1cc(Cl)cc2cccnc12

>  <HIPPO Pose ID>  (1095) 
139239

>  <energy_score>  (1095) 
-24.614851

>  <inchikey>  (1095) 
CHTXXGMBTFLSLR-HSZRJFAPSA-N

>  <gnina_score_min>  (1095) 
6.295

>  <gnina_score>  (1095) 
6.014

>  <ref_mols>  (1095) 
Z1752a

>  <HIPPO Compound ID>  (1095) 
190130

>  <distance_score>  (1095) 
1.397031

>  <rmsd(smina/fragmenstein)>  (1095) 
0.478

>  <ref_pdb>  (1095) 
Z1752a

>  <inspiration_score>  (1095) 
None

$$$$
P139316
     RDKit          3D

 32 35  0  0  0  0  0  0  0  0999 V2000
   -9.9753    4.3298  -17.9683 C   0  0  0  0  0  0  0  0  0  0  0  0
   -8.6126    4.5514  -17.3938 C   0  0  0  0  0  0  0  0  0  0  0  0
   -8.3945    4.5161  -16.0148 C   0  0  0  0  0  0  0  0  0  0  0  0
   -7.1027    4.6750  -15.5080 C   0  0  0  0  0  0  0  0  0  0  0  0
   -6.8404    4.5626  -14.1393 N   0  0  0  0  0  0  0  0  0  0  0  0
   -7.8129    4.3467  -12.9341 C   0  0  0  0  0  0  0  0  0  0  0  0
   -8.9821    4.3085  -12.9013 O   0  0  0  0  0  0  0  0  0  0  0  0
   -6.9273    4.2194  -11.6647 C   0  0  2  0  0  0  0  0  0  0  0  0
   -7.3449    3.1482  -10.7914 N   0  0  0  0  0  0  0  0  0  0  0  0
   -7.9740    3.5796   -9.6491 C   0  0  0  0  0  0  0  0  0  0  0  0
   -8.3748    2.8689   -8.7474 O   0  0  0  0  0  0  0  0  0  0  0  0
   -8.0626    5.0790   -9.6973 C   0  0  0  0  0  0  0  0  0  0  0  0
   -7.0195    5.4660  -10.7555 C   0  0  2  0  0  0  0  0  0  0  0  0
   -7.3130    6.8130  -11.4497 C   0  0  0  0  0  0  0  0  0  0  0  0
   -5.9572    7.2375  -12.0039 C   0  0  0  0  0  0  0  0  0  0  0  0
   -5.0098    6.5913  -11.1266 N   0  0  0  0  0  0  0  0  0  0  0  0
   -3.6631    6.7572  -11.2214 C   0  0  0  0  0  0  0  0  0  0  0  0
   -3.0381    7.6258  -10.6344 O   0  0  0  0  0  0  0  0  0  0  0  0
   -3.1440    5.7912  -12.0166 O   0  0  0  0  0  0  0  0  0  0  0  0
   -1.7188    5.7198  -12.2621 C   0  0  0  0  0  0  0  0  0  0  0  0
   -1.5345    4.4696  -13.1349 C   0  0  0  0  0  0  0  0  0  0  0  0
   -0.9243    5.5241  -10.9660 C   0  0  0  0  0  0  0  0  0  0  0  0
   -1.2415    6.9451  -13.0477 C   0  0  0  0  0  0  0  0  0  0  0  0
   -5.6424    5.7489  -10.1362 C   0  0  0  0  0  0  0  0  0  0  0  0
   -6.0075    4.9044  -16.3552 C   0  0  0  0  0  0  0  0  0  0  0  0
   -4.7580    5.0661  -15.8503 N   0  0  0  0  0  0  0  0  0  0  0  0
   -3.7427    5.2737  -16.7236 C   0  0  0  0  0  0  0  0  0  0  0  0
   -3.8990    5.3288  -18.0968 C   0  0  0  0  0  0  0  0  0  0  0  0
   -2.4147    5.5771  -19.2323 Br  0  0  0  0  0  0  0  0  0  0  0  0
   -5.1719    5.1733  -18.6178 C   0  0  0  0  0  0  0  0  0  0  0  0
   -6.2455    4.9525  -17.7461 C   0  0  0  0  0  0  0  0  0  0  0  0
   -7.5328    4.7565  -18.2507 C   0  0  0  0  0  0  0  0  0  0  0  0
  1  2  1  0
  2  3  2  0
  3  4  1  0
  4  5  1  0
  5  6  1  0
  6  7  2  0
  8  6  1  6
  8  9  1  0
  9 10  1  0
 10 11  2  0
 10 12  1  0
 13 12  1  1
 13 14  1  0
 14 15  1  0
 15 16  1  0
 16 17  1  0
 17 18  2  0
 17 19  1  0
 19 20  1  0
 20 21  1  0
 20 22  1  0
 20 23  1  0
 16 24  1  0
  4 25  2  0
 25 26  1  0
 26 27  2  0
 27 28  1  0
 28 29  1  0
 28 30  2  0
 30 31  1  0
 31 32  2  0
 32  2  1  0
 13  8  1  0
 31 25  1  0
 24 13  1  0
M  END
>  <name>  (1096) 
P139316

>  <alias>  (1096) 
None

>  <smina_score_min>  (1096) 
-8.397

>  <exports>  (1096) 
['/opt/xchem-fragalysis-2/maxwin/BulkDock/OUTPUTS/openbind_xx01zvns2b_c2_elabs_1LOUTNY.sdf', '/opt/xchem-fragalysis-2/maxwin/BulkDock/OUTPUTS/openbind_xx01zvns2b_c2_elabs_1LSYIIV.sdf']

>  <tags>  (1096) 
syndirella_placed,openbind_xx01zvns2b_c2_elabs,openbind_xx01zvns2b_c2_elabs_scored_6.2plus,syndirella_product,openbind_xx01zvns2b_c2_elabs_scored,openbind_xx01zvns2b_c2_elabs_scored_top80percent,BulkDock Fragalysis export

>  <subsites>  (1096) 
1 - Z4590/B/203/1

>  <smiles>  (1096) 
Cc1cc(NC(=O)[C@@H]2NC(=O)C[C@]23CCN(C(=O)OC(C)(C)C)C3)c2ncc(Br)cc2c1

>  <HIPPO Pose ID>  (1096) 
139316

>  <energy_score>  (1096) 
-70.177844

>  <inchikey>  (1096) 
KCMRDEWPDKXJJL-CVDCTZTESA-N

>  <gnina_score_min>  (1096) 
6.38

>  <gnina_score>  (1096) 
6.223

>  <ref_mols>  (1096) 
Z1752a

>  <HIPPO Compound ID>  (1096) 
190210

>  <distance_score>  (1096) 
0.934272

>  <rmsd(smina/fragmenstein)>  (1096) 
1.758

>  <ref_pdb>  (1096) 
Z1752a

>  <inspiration_score>  (1096) 
None

$$$$
P139440
     RDKit          3D

 26 29  0  0  0  0  0  0  0  0999 V2000
   -5.5159    3.1241   -8.9795 C   0  0  0  0  0  0  0  0  0  0  0  0
   -6.4529    2.0687   -9.3794 N   0  0  0  0  0  0  0  0  0  0  0  0
   -6.0363    1.5591  -10.6825 C   0  0  0  0  0  0  0  0  0  0  0  0
   -7.8798    2.4552   -9.2440 C   0  0  0  0  0  0  0  0  0  0  0  0
   -8.2089    3.7210   -9.9996 C   0  0  0  0  0  0  0  0  0  0  0  0
   -8.2936    3.6150  -11.3957 C   0  0  0  0  0  0  0  0  0  0  0  0
   -8.0949    4.7338  -12.1876 C   0  0  0  0  0  0  0  0  0  0  0  0
   -7.9364    4.5424  -13.5477 N   0  0  0  0  0  0  0  0  0  0  0  0
   -7.4851    5.5181  -14.6488 C   0  0  0  0  0  0  0  0  0  0  0  0
   -7.1017    6.6156  -14.5743 O   0  0  0  0  0  0  0  0  0  0  0  0
   -7.6631    4.9027  -15.9843 C   0  0  0  0  0  0  0  0  0  0  0  0
   -8.8737    4.2699  -16.3197 C   0  0  0  0  0  0  0  0  0  0  0  0
   -9.1314    3.8553  -17.6250 C   0  0  0  0  0  0  0  0  0  0  0  0
   -8.1869    4.0364  -18.6317 C   0  0  0  0  0  0  0  0  0  0  0  0
   -6.9875    4.6510  -18.2718 C   0  0  0  0  0  0  0  0  0  0  0  0
   -5.8923    5.0092  -19.0113 N   0  0  0  0  0  0  0  0  0  0  0  0
   -4.9778    5.5731  -18.1666 C   0  0  0  0  0  0  0  0  0  0  0  0
   -3.5724    6.0988  -18.5486 C   0  0  0  0  0  0  0  0  0  0  0  0
   -3.0360    5.9597  -19.9452 C   0  0  0  0  0  0  0  0  0  0  0  0
   -2.4877    5.0978  -18.8414 C   0  0  0  0  0  0  0  0  0  0  0  0
   -5.4391    5.6480  -16.9409 N   0  0  0  0  0  0  0  0  0  0  0  0
   -6.6926    5.0809  -16.9812 C   0  0  0  0  0  0  0  0  0  0  0  0
   -7.9726    5.9917  -11.6040 C   0  0  0  0  0  0  0  0  0  0  0  0
   -8.0562    6.1268  -10.2181 C   0  0  0  0  0  0  0  0  0  0  0  0
   -8.1674    4.9944   -9.4117 C   0  0  0  0  0  0  0  0  0  0  0  0
   -8.1750    5.2403   -7.7016 Cl  0  0  0  0  0  0  0  0  0  0  0  0
  1  2  1  0
  2  3  1  0
  2  4  1  0
  4  5  1  0
  5  6  2  0
  6  7  1  0
  7  8  1  0
  8  9  1  0
  9 10  2  0
  9 11  1  0
 11 12  2  0
 12 13  1  0
 13 14  2  0
 14 15  1  0
 15 16  1  0
 16 17  1  0
 17 18  1  0
 18 19  1  0
 19 20  1  0
 17 21  2  0
 21 22  1  0
  7 23  2  0
 23 24  1  0
 24 25  2  0
 25 26  1  0
 25  5  1  0
 22 11  1  0
 22 15  2  0
 20 18  1  0
M  END
>  <name>  (1097) 
P139440

>  <alias>  (1097) 
None

>  <smina_score_min>  (1097) 
-7.736

>  <exports>  (1097) 
['/opt/xchem-fragalysis-2/maxwin/BulkDock/OUTPUTS/openbind_xx01zvns2b_c2_elabs_1LOUTNY.sdf', '/opt/xchem-fragalysis-2/maxwin/BulkDock/OUTPUTS/openbind_xx01zvns2b_c2_elabs_1LSYIIV.sdf']

>  <tags>  (1097) 
syndirella_placed,openbind_xx01zvns2b_c2_elabs,openbind_xx01zvns2b_c2_elabs_scored_6.2plus,syndirella_product,openbind_xx01zvns2b_c2_elabs_scored,openbind_xx01zvns2b_c2_elabs_scored_top80percent,BulkDock Fragalysis export

>  <subsites>  (1097) 
1 - Z4590/B/203/1

>  <smiles>  (1097) 
CN(C)Cc1cc(NC(=O)c2cccc3[nH]c(C4CC4)nc23)ccc1Cl

>  <HIPPO Pose ID>  (1097) 
139440

>  <energy_score>  (1097) 
-15.050646

>  <inchikey>  (1097) 
MEUJCHLZMIMNJW-UHFFFAOYSA-N

>  <gnina_score_min>  (1097) 
6.304

>  <gnina_score>  (1097) 
6.168

>  <ref_mols>  (1097) 
Z3094a

>  <HIPPO Compound ID>  (1097) 
197682

>  <distance_score>  (1097) 
0.816478

>  <rmsd(smina/fragmenstein)>  (1097) 
0.813

>  <ref_pdb>  (1097) 
Z3094a

>  <inspiration_score>  (1097) 
None

$$$$
P139478
     RDKit          3D

 27 31  0  0  0  0  0  0  0  0999 V2000
   -4.7631    2.8175   -9.3051 C   0  0  0  0  0  0  0  0  0  0  0  0
   -5.7151    2.3327  -10.3979 C   0  0  0  0  0  0  0  0  0  0  0  0
   -5.1539    1.0289  -10.9790 C   0  0  0  0  0  0  0  0  0  0  0  0
   -7.1424    2.0732  -10.0439 N   0  0  0  0  0  0  0  0  0  0  0  0
   -7.7348    2.9421   -8.9910 C   0  0  0  0  0  0  0  0  0  0  0  0
   -8.0585    4.2130   -9.7135 C   0  0  0  0  0  0  0  0  0  0  0  0
   -8.0747    5.4995   -9.2175 C   0  0  0  0  0  0  0  0  0  0  0  0
   -8.0579    6.5367  -10.1433 C   0  0  0  0  0  0  0  0  0  0  0  0
   -8.0076    6.2650  -11.5239 C   0  0  0  0  0  0  0  0  0  0  0  0
   -8.0349    4.9527  -12.0071 C   0  0  0  0  0  0  0  0  0  0  0  0
   -7.8701    4.6822  -13.3585 N   0  0  0  0  0  0  0  0  0  0  0  0
   -7.4352    5.6013  -14.5186 C   0  0  0  0  0  0  0  0  0  0  0  0
   -7.0731    6.7098  -14.5095 O   0  0  0  0  0  0  0  0  0  0  0  0
   -7.6165    4.9337  -15.8315 C   0  0  0  0  0  0  0  0  0  0  0  0
   -8.8359    4.3093  -16.1464 C   0  0  0  0  0  0  0  0  0  0  0  0
   -9.1219    3.9016  -17.4507 C   0  0  0  0  0  0  0  0  0  0  0  0
   -8.1966    4.0722  -18.4775 C   0  0  0  0  0  0  0  0  0  0  0  0
   -6.9833    4.6682  -18.1359 C   0  0  0  0  0  0  0  0  0  0  0  0
   -5.8973    5.0116  -18.8960 N   0  0  0  0  0  0  0  0  0  0  0  0
   -4.9646    5.5740  -18.0709 C   0  0  0  0  0  0  0  0  0  0  0  0
   -3.5643    6.0923  -18.4826 C   0  0  0  0  0  0  0  0  0  0  0  0
   -2.5030    5.0884  -18.8429 C   0  0  0  0  0  0  0  0  0  0  0  0
   -3.0763    5.9911  -19.9005 C   0  0  0  0  0  0  0  0  0  0  0  0
   -5.4027    5.6556  -16.8368 N   0  0  0  0  0  0  0  0  0  0  0  0
   -6.6617    5.0966  -16.8499 C   0  0  0  0  0  0  0  0  0  0  0  0
   -8.1145    3.9347  -11.0848 C   0  0  0  0  0  0  0  0  0  0  0  0
   -7.9636    2.4553  -11.2350 C   0  0  0  0  0  0  0  0  0  0  0  0
  1  2  1  0
  2  3  1  0
  2  4  1  0
  4  5  1  0
  5  6  1  0
  6  7  2  0
  7  8  1  0
  8  9  2  0
  9 10  1  0
 10 11  1  0
 11 12  1  0
 12 13  2  0
 12 14  1  0
 14 15  2  0
 15 16  1  0
 16 17  2  0
 17 18  1  0
 18 19  1  0
 19 20  1  0
 20 21  1  0
 21 22  1  0
 22 23  1  0
 20 24  2  0
 24 25  1  0
 10 26  2  0
 26 27  1  0
 27  4  1  0
 26  6  1  0
 25 14  1  0
 25 18  2  0
 23 21  1  0
M  END
>  <name>  (1098) 
P139478

>  <alias>  (1098) 
None

>  <smina_score_min>  (1098) 
-8.382

>  <exports>  (1098) 
['/opt/xchem-fragalysis-2/maxwin/BulkDock/OUTPUTS/openbind_xx01zvns2b_c2_elabs_1LOUTNY.sdf', '/opt/xchem-fragalysis-2/maxwin/BulkDock/OUTPUTS/openbind_xx01zvns2b_c2_elabs_1LSYIIV.sdf']

>  <tags>  (1098) 
syndirella_placed,openbind_xx01zvns2b_c2_elabs,openbind_xx01zvns2b_c2_elabs_scored_6.2plus,syndirella_product,openbind_xx01zvns2b_c2_elabs_scored,openbind_xx01zvns2b_c2_elabs_scored_top80percent,BulkDock Fragalysis export

>  <subsites>  (1098) 
1 - Z4590/B/203/1

>  <smiles>  (1098) 
CC(C)N1Cc2cccc(NC(=O)c3cccc4[nH]c(C5CC5)nc34)c2C1

>  <HIPPO Pose ID>  (1098) 
139478

>  <energy_score>  (1098) 
-67.700845

>  <inchikey>  (1098) 
AEDGOTLIDPQURX-UHFFFAOYSA-N

>  <gnina_score_min>  (1098) 
6.331

>  <gnina_score>  (1098) 
6.309

>  <ref_mols>  (1098) 
Z3094a

>  <HIPPO Compound ID>  (1098) 
197739

>  <distance_score>  (1098) 
0.90833

>  <rmsd(smina/fragmenstein)>  (1098) 
0.642

>  <ref_pdb>  (1098) 
Z3094a

>  <inspiration_score>  (1098) 
None

$$$$
P139484
     RDKit          3D

 27 31  0  0  0  0  0  0  0  0999 V2000
   -9.7389    1.7104   -9.5531 O   0  0  0  0  0  0  0  0  0  0  0  0
   -9.1719    2.6552   -9.0232 C   0  0  0  0  0  0  0  0  0  0  0  0
   -9.0706    2.7728   -7.6583 N   0  0  0  0  0  0  0  0  0  0  0  0
   -8.2403    3.7769   -7.0334 C   0  0  0  0  0  0  0  0  0  0  0  0
   -8.3421    5.1273   -7.7183 C   0  0  0  0  0  0  0  0  0  0  0  0
   -8.1902    4.9515   -9.2049 C   0  0  0  0  0  0  0  0  0  0  0  0
   -7.7053    5.9935   -9.9920 C   0  0  0  0  0  0  0  0  0  0  0  0
   -7.5844    5.8315  -11.3714 C   0  0  0  0  0  0  0  0  0  0  0  0
   -7.1407    6.8908  -12.0564 F   0  0  0  0  0  0  0  0  0  0  0  0
   -7.9395    4.6322  -12.0014 C   0  0  0  0  0  0  0  0  0  0  0  0
   -7.8438    4.4256  -13.3816 N   0  0  0  0  0  0  0  0  0  0  0  0
   -7.3043    5.3511  -14.5036 C   0  0  0  0  0  0  0  0  0  0  0  0
   -6.7867    6.3963  -14.4390 O   0  0  0  0  0  0  0  0  0  0  0  0
   -7.5917    4.7981  -15.8527 C   0  0  0  0  0  0  0  0  0  0  0  0
   -8.8506    4.2491  -16.1524 C   0  0  0  0  0  0  0  0  0  0  0  0
   -9.2040    3.9180  -17.4618 C   0  0  0  0  0  0  0  0  0  0  0  0
   -8.3159    4.1079  -18.5163 C   0  0  0  0  0  0  0  0  0  0  0  0
   -7.0754    4.6586  -18.2000 C   0  0  0  0  0  0  0  0  0  0  0  0
   -6.0306    5.0500  -18.9952 N   0  0  0  0  0  0  0  0  0  0  0  0
   -5.0416    5.5302  -18.1838 C   0  0  0  0  0  0  0  0  0  0  0  0
   -3.6723    6.0924  -18.6367 C   0  0  0  0  0  0  0  0  0  0  0  0
   -3.1394    5.8300  -20.0166 C   0  0  0  0  0  0  0  0  0  0  0  0
   -2.5333    5.1283  -18.8332 C   0  0  0  0  0  0  0  0  0  0  0  0
   -5.4012    5.5065  -16.9227 N   0  0  0  0  0  0  0  0  0  0  0  0
   -6.6799    4.9932  -16.9067 C   0  0  0  0  0  0  0  0  0  0  0  0
   -8.4486    3.5919  -11.2184 C   0  0  0  0  0  0  0  0  0  0  0  0
   -8.5819    3.7544   -9.8307 C   0  0  0  0  0  0  0  0  0  0  0  0
  1  2  2  0
  2  3  1  0
  3  4  1  0
  4  5  1  0
  5  6  1  0
  6  7  2  0
  7  8  1  0
  8  9  1  0
  8 10  2  0
 10 11  1  0
 11 12  1  0
 12 13  2  0
 12 14  1  0
 14 15  2  0
 15 16  1  0
 16 17  2  0
 17 18  1  0
 18 19  1  0
 19 20  1  0
 20 21  1  0
 21 22  1  0
 22 23  1  0
 20 24  2  0
 24 25  1  0
 10 26  1  0
 26 27  2  0
 27  2  1  0
 27  6  1  0
 25 14  1  0
 25 18  2  0
 23 21  1  0
M  END
>  <name>  (1099) 
P139484

>  <alias>  (1099) 
None

>  <smina_score_min>  (1099) 
-9.047

>  <exports>  (1099) 
['/opt/xchem-fragalysis-2/maxwin/BulkDock/OUTPUTS/openbind_xx01zvns2b_c2_elabs_1LOUTNY.sdf', '/opt/xchem-fragalysis-2/maxwin/BulkDock/OUTPUTS/openbind_xx01zvns2b_c2_elabs_1LSYIIV.sdf']

>  <tags>  (1099) 
syndirella_placed,openbind_xx01zvns2b_c2_elabs,openbind_xx01zvns2b_c2_elabs_scored_6.2plus,syndirella_product,openbind_xx01zvns2b_c2_elabs_scored,openbind_xx01zvns2b_c2_elabs_scored_top80percent,BulkDock Fragalysis export

>  <subsites>  (1099) 
1 - Z4590/B/203/1

>  <smiles>  (1099) 
O=C1NCCc2cc(F)c(NC(=O)c3cccc4[nH]c(C5CC5)nc34)cc21

>  <HIPPO Pose ID>  (1099) 
139484

>  <energy_score>  (1099) 
-21.071476

>  <inchikey>  (1099) 
KNULJAYRNJJRCL-UHFFFAOYSA-N

>  <gnina_score_min>  (1099) 
6.262

>  <gnina_score>  (1099) 
6.225

>  <ref_mols>  (1099) 
Z3094a

>  <HIPPO Compound ID>  (1099) 
197748

>  <distance_score>  (1099) 
0.586633

>  <rmsd(smina/fragmenstein)>  (1099) 
0.708

>  <ref_pdb>  (1099) 
Z3094a

>  <inspiration_score>  (1099) 
None

$$$$
P139511
     RDKit          3D

 27 31  0  0  0  0  0  0  0  0999 V2000
   -4.7851    3.5428   -9.2044 C   0  0  0  0  0  0  0  0  0  0  0  0
   -5.2606    2.6366  -10.3267 C   0  0  0  0  0  0  0  0  0  0  0  0
   -6.3719    1.6410   -9.9427 C   0  0  0  0  0  0  0  0  0  0  0  0
   -7.7953    2.0153   -9.9456 N   0  0  0  0  0  0  0  0  0  0  0  0
   -8.2048    3.0055   -8.9379 C   0  0  0  0  0  0  0  0  0  0  0  0
   -8.2003    4.3020   -9.6830 C   0  0  0  0  0  0  0  0  0  0  0  0
   -8.1269    5.5857   -9.1862 C   0  0  0  0  0  0  0  0  0  0  0  0
   -7.9401    6.6183  -10.1017 C   0  0  0  0  0  0  0  0  0  0  0  0
   -7.8290    6.3509  -11.4799 C   0  0  0  0  0  0  0  0  0  0  0  0
   -7.9400    5.0493  -11.9707 C   0  0  0  0  0  0  0  0  0  0  0  0
   -7.7932    4.7605  -13.3214 N   0  0  0  0  0  0  0  0  0  0  0  0
   -7.3381    5.6545  -14.4936 C   0  0  0  0  0  0  0  0  0  0  0  0
   -6.9416    6.7513  -14.4980 O   0  0  0  0  0  0  0  0  0  0  0  0
   -7.5581    4.9751  -15.7977 C   0  0  0  0  0  0  0  0  0  0  0  0
   -8.7939    4.3657  -16.0818 C   0  0  0  0  0  0  0  0  0  0  0  0
   -9.1145    3.9506  -17.3763 C   0  0  0  0  0  0  0  0  0  0  0  0
   -8.2120    4.1036  -18.4262 C   0  0  0  0  0  0  0  0  0  0  0  0
   -6.9844    4.6878  -18.1166 C   0  0  0  0  0  0  0  0  0  0  0  0
   -5.9191    5.0287  -18.9072 N   0  0  0  0  0  0  0  0  0  0  0  0
   -4.9578    5.5772  -18.1057 C   0  0  0  0  0  0  0  0  0  0  0  0
   -3.5703    6.0971  -18.5551 C   0  0  0  0  0  0  0  0  0  0  0  0
   -2.4924    5.0933  -18.8620 C   0  0  0  0  0  0  0  0  0  0  0  0
   -3.0873    5.9219  -19.9670 C   0  0  0  0  0  0  0  0  0  0  0  0
   -5.3575    5.6513  -16.8584 N   0  0  0  0  0  0  0  0  0  0  0  0
   -6.6256    5.1152  -16.8396 C   0  0  0  0  0  0  0  0  0  0  0  0
   -8.1495    4.0404  -11.0571 C   0  0  0  0  0  0  0  0  0  0  0  0
   -8.2103    2.5675  -11.2461 C   0  0  0  0  0  0  0  0  0  0  0  0
  1  2  1  0
  2  3  1  0
  3  4  1  0
  4  5  1  0
  5  6  1  0
  6  7  2  0
  7  8  1  0
  8  9  2  0
  9 10  1  0
 10 11  1  0
 11 12  1  0
 12 13  2  0
 12 14  1  0
 14 15  2  0
 15 16  1  0
 16 17  2  0
 17 18  1  0
 18 19  1  0
 19 20  1  0
 20 21  1  0
 21 22  1  0
 22 23  1  0
 20 24  2  0
 24 25  1  0
 10 26  2  0
 26 27  1  0
 27  4  1  0
 26  6  1  0
 25 14  1  0
 25 18  2  0
 23 21  1  0
M  END
>  <name>  (1100) 
P139511

>  <alias>  (1100) 
None

>  <smina_score_min>  (1100) 
-8.066

>  <exports>  (1100) 
['/opt/xchem-fragalysis-2/maxwin/BulkDock/OUTPUTS/openbind_xx01zvns2b_c2_elabs_1LOUTNY.sdf', '/opt/xchem-fragalysis-2/maxwin/BulkDock/OUTPUTS/openbind_xx01zvns2b_c2_elabs_1LSYIIV.sdf']

>  <tags>  (1100) 
syndirella_placed,openbind_xx01zvns2b_c2_elabs,openbind_xx01zvns2b_c2_elabs_scored_6.2plus,syndirella_product,openbind_xx01zvns2b_c2_elabs_scored,openbind_xx01zvns2b_c2_elabs_scored_top80percent,BulkDock Fragalysis export

>  <subsites>  (1100) 
1 - Z4590/B/203/1

>  <smiles>  (1100) 
CCCN1Cc2cccc(NC(=O)c3cccc4[nH]c(C5CC5)nc34)c2C1

>  <HIPPO Pose ID>  (1100) 
139511

>  <energy_score>  (1100) 
-22.513908

>  <inchikey>  (1100) 
MNORGTKQRPMVEM-UHFFFAOYSA-N

>  <gnina_score_min>  (1100) 
6.334

>  <gnina_score>  (1100) 
6.278

>  <ref_mols>  (1100) 
Z3094a

>  <HIPPO Compound ID>  (1100) 
197793

>  <distance_score>  (1100) 
0.870351

>  <rmsd(smina/fragmenstein)>  (1100) 
0.897

>  <ref_pdb>  (1100) 
Z3094a

>  <inspiration_score>  (1100) 
None

$$$$
P139518
     RDKit          3D

 27 31  0  0  0  0  0  0  0  0999 V2000
   -9.9626    1.6298  -10.0094 O   0  0  0  0  0  0  0  0  0  0  0  0
   -9.4297    2.4667   -9.2945 C   0  0  0  0  0  0  0  0  0  0  0  0
   -9.6386    2.4902   -7.9430 N   0  0  0  0  0  0  0  0  0  0  0  0
   -8.8987    3.3183   -7.0286 C   0  0  0  0  0  0  0  0  0  0  0  0
   -8.4152    4.6386   -7.6206 C   0  0  0  0  0  0  0  0  0  0  0  0
   -8.0917    4.5596   -9.0865 C   0  0  0  0  0  0  0  0  0  0  0  0
   -7.3483    5.5671   -9.7071 C   0  0  0  0  0  0  0  0  0  0  0  0
   -7.0882    5.5482  -11.0943 C   0  0  0  0  0  0  0  0  0  0  0  0
   -5.8392    6.8676  -11.6446 Br  0  0  0  0  0  0  0  0  0  0  0  0
   -7.6127    4.5262  -11.8994 C   0  0  0  0  0  0  0  0  0  0  0  0
   -7.5618    4.3888  -13.2995 N   0  0  0  0  0  0  0  0  0  0  0  0
   -7.2667    5.4350  -14.4032 C   0  0  0  0  0  0  0  0  0  0  0  0
   -6.9446    6.5538  -14.3183 O   0  0  0  0  0  0  0  0  0  0  0  0
   -7.5377    4.8750  -15.7482 C   0  0  0  0  0  0  0  0  0  0  0  0
   -8.7898    4.3041  -16.0321 C   0  0  0  0  0  0  0  0  0  0  0  0
   -9.1428    3.9582  -17.3382 C   0  0  0  0  0  0  0  0  0  0  0  0
   -8.2571    4.1432  -18.3979 C   0  0  0  0  0  0  0  0  0  0  0  0
   -7.0176    4.7019  -18.0886 C   0  0  0  0  0  0  0  0  0  0  0  0
   -5.9640    5.0644  -18.8850 N   0  0  0  0  0  0  0  0  0  0  0  0
   -4.9822    5.5698  -18.0796 C   0  0  0  0  0  0  0  0  0  0  0  0
   -3.6021    6.1023  -18.5378 C   0  0  0  0  0  0  0  0  0  0  0  0
   -3.1184    5.9106  -19.9477 C   0  0  0  0  0  0  0  0  0  0  0  0
   -2.5112    5.1078  -18.8306 C   0  0  0  0  0  0  0  0  0  0  0  0
   -5.3543    5.5895  -16.8210 N   0  0  0  0  0  0  0  0  0  0  0  0
   -6.6276    5.0655  -16.8010 C   0  0  0  0  0  0  0  0  0  0  0  0
   -8.3275    3.5004  -11.2597 C   0  0  0  0  0  0  0  0  0  0  0  0
   -8.5778    3.5228   -9.8786 C   0  0  0  0  0  0  0  0  0  0  0  0
  1  2  2  0
  2  3  1  0
  3  4  1  0
  4  5  1  0
  5  6  1  0
  6  7  2  0
  7  8  1  0
  8  9  1  0
  8 10  2  0
 10 11  1  0
 11 12  1  0
 12 13  2  0
 12 14  1  0
 14 15  2  0
 15 16  1  0
 16 17  2  0
 17 18  1  0
 18 19  1  0
 19 20  1  0
 20 21  1  0
 21 22  1  0
 22 23  1  0
 20 24  2  0
 24 25  1  0
 10 26  1  0
 26 27  2  0
 27  2  1  0
 27  6  1  0
 25 14  1  0
 25 18  2  0
 23 21  1  0
M  END
>  <name>  (1101) 
P139518

>  <alias>  (1101) 
None

>  <smina_score_min>  (1101) 
-7.995

>  <exports>  (1101) 
['/opt/xchem-fragalysis-2/maxwin/BulkDock/OUTPUTS/openbind_xx01zvns2b_c2_elabs_1LOUTNY.sdf', '/opt/xchem-fragalysis-2/maxwin/BulkDock/OUTPUTS/openbind_xx01zvns2b_c2_elabs_1LSYIIV.sdf']

>  <tags>  (1101) 
syndirella_placed,openbind_xx01zvns2b_c2_elabs,openbind_xx01zvns2b_c2_elabs_scored_6.2plus,syndirella_product,openbind_xx01zvns2b_c2_elabs_scored,openbind_xx01zvns2b_c2_elabs_scored_top80percent,BulkDock Fragalysis export

>  <subsites>  (1101) 
1 - Z4590/B/203/1

>  <smiles>  (1101) 
O=C1NCCc2cc(Br)c(NC(=O)c3cccc4[nH]c(C5CC5)nc34)cc21

>  <HIPPO Pose ID>  (1101) 
139518

>  <energy_score>  (1101) 
-1.047961

>  <inchikey>  (1101) 
PKUPFGDWIXKBON-UHFFFAOYSA-N

>  <gnina_score_min>  (1101) 
6.228

>  <gnina_score>  (1101) 
6.31

>  <ref_mols>  (1101) 
Z3094a

>  <HIPPO Compound ID>  (1101) 
197802

>  <distance_score>  (1101) 
0.655114

>  <rmsd(smina/fragmenstein)>  (1101) 
0.81

>  <ref_pdb>  (1101) 
Z3094a

>  <inspiration_score>  (1101) 
None

$$$$
P139520
     RDKit          3D

 27 31  0  0  0  0  0  0  0  0999 V2000
   -7.2363    6.5889  -14.5260 O   0  0  0  0  0  0  0  0  0  0  0  0
   -7.5756    5.4765  -14.6034 C   0  0  0  0  0  0  0  0  0  0  0  0
   -8.0479    4.4978  -13.5101 N   0  0  0  0  0  0  0  0  0  0  0  0
   -8.1093    4.6471  -12.1339 C   0  0  0  0  0  0  0  0  0  0  0  0
   -8.0199    5.9072  -11.5406 C   0  0  0  0  0  0  0  0  0  0  0  0
   -8.0805    6.0385  -10.1534 C   0  0  0  0  0  0  0  0  0  0  0  0
   -8.1607    4.9023   -9.3564 C   0  0  0  0  0  0  0  0  0  0  0  0
   -8.1733    3.6317   -9.9512 C   0  0  0  0  0  0  0  0  0  0  0  0
   -7.8012    2.4200   -9.1352 C   0  0  0  0  0  0  0  0  0  0  0  0
   -6.3671    2.1956   -9.3326 N   0  0  0  0  0  0  0  0  0  0  0  0
   -5.3519    3.0876   -9.0551 C   0  0  0  0  0  0  0  0  0  0  0  0
   -4.1949    2.4686   -9.4589 C   0  0  0  0  0  0  0  0  0  0  0  0
   -4.4640    1.2306   -9.9693 N   0  0  0  0  0  0  0  0  0  0  0  0
   -5.7733    1.1153   -9.9212 C   0  0  0  0  0  0  0  0  0  0  0  0
   -8.2293    3.5115  -11.3458 C   0  0  0  0  0  0  0  0  0  0  0  0
   -7.6905    4.8562  -15.9443 C   0  0  0  0  0  0  0  0  0  0  0  0
   -8.8898    4.2215  -16.3161 C   0  0  0  0  0  0  0  0  0  0  0  0
   -9.1213    3.8262  -17.6320 C   0  0  0  0  0  0  0  0  0  0  0  0
   -8.1606    4.0308  -18.6175 C   0  0  0  0  0  0  0  0  0  0  0  0
   -6.9722    4.6462  -18.2243 C   0  0  0  0  0  0  0  0  0  0  0  0
   -5.8680    5.0233  -18.9402 N   0  0  0  0  0  0  0  0  0  0  0  0
   -4.9699    5.5772  -18.0721 C   0  0  0  0  0  0  0  0  0  0  0  0
   -3.5578    6.1073  -18.4246 C   0  0  0  0  0  0  0  0  0  0  0  0
   -3.0397    6.0797  -19.8354 C   0  0  0  0  0  0  0  0  0  0  0  0
   -2.4945    5.1170  -18.8164 C   0  0  0  0  0  0  0  0  0  0  0  0
   -5.4524    5.6311  -16.8530 N   0  0  0  0  0  0  0  0  0  0  0  0
   -6.7025    5.0571  -16.9208 C   0  0  0  0  0  0  0  0  0  0  0  0
  1  2  2  0
  2  3  1  0
  3  4  1  0
  4  5  2  0
  5  6  1  0
  6  7  2  0
  7  8  1  0
  8  9  1  0
  9 10  1  0
 10 11  1  0
 11 12  2  0
 12 13  1  0
 13 14  2  0
  8 15  2  0
  2 16  1  0
 16 17  2  0
 17 18  1  0
 18 19  2  0
 19 20  1  0
 20 21  1  0
 21 22  1  0
 22 23  1  0
 23 24  1  0
 24 25  1  0
 22 26  2  0
 26 27  1  0
 15  4  1  0
 27 16  1  0
 14 10  1  0
 27 20  2  0
 25 23  1  0
M  END
>  <name>  (1102) 
P139520

>  <alias>  (1102) 
None

>  <smina_score_min>  (1102) 
-7.955

>  <exports>  (1102) 
['/opt/xchem-fragalysis-2/maxwin/BulkDock/OUTPUTS/openbind_xx01zvns2b_c2_elabs_1LOUTNY.sdf', '/opt/xchem-fragalysis-2/maxwin/BulkDock/OUTPUTS/openbind_xx01zvns2b_c2_elabs_1LSYIIV.sdf']

>  <tags>  (1102) 
syndirella_placed,openbind_xx01zvns2b_c2_elabs,openbind_xx01zvns2b_c2_elabs_scored_6.2plus,syndirella_product,openbind_xx01zvns2b_c2_elabs_scored,openbind_xx01zvns2b_c2_elabs_scored_top80percent,BulkDock Fragalysis export

>  <subsites>  (1102) 
1 - Z4590/B/203/1

>  <smiles>  (1102) 
O=C(Nc1cccc(Cn2ccnc2)c1)c1cccc2[nH]c(C3CC3)nc12

>  <HIPPO Pose ID>  (1102) 
139520

>  <energy_score>  (1102) 
-20.412405

>  <inchikey>  (1102) 
MFNOCCAGRDIMEQ-UHFFFAOYSA-N

>  <gnina_score_min>  (1102) 
6.328

>  <gnina_score>  (1102) 
6.264

>  <ref_mols>  (1102) 
Z3094a

>  <HIPPO Compound ID>  (1102) 
197807

>  <distance_score>  (1102) 
0.804304

>  <rmsd(smina/fragmenstein)>  (1102) 
0.73

>  <ref_pdb>  (1102) 
Z3094a

>  <inspiration_score>  (1102) 
None

$$$$
P139522
     RDKit          3D

 27 31  0  0  0  0  0  0  0  0999 V2000
   -6.8206    1.3156   -9.4176 O   0  0  0  0  0  0  0  0  0  0  0  0
   -7.7948    1.9961   -9.1203 C   0  0  0  0  0  0  0  0  0  0  0  0
   -8.6545    1.6387   -8.1252 N   0  0  0  0  0  0  0  0  0  0  0  0
   -9.6685    2.4803   -7.5728 C   0  0  0  0  0  0  0  0  0  0  0  0
   -9.1023    3.7067   -6.8630 C   0  0  0  0  0  0  0  0  0  0  0  0
   -8.0314    4.5091   -7.6190 C   0  0  0  0  0  0  0  0  0  0  0  0
   -8.0809    4.4812   -9.1263 C   0  0  0  0  0  0  0  0  0  0  0  0
   -8.0413    5.6665   -9.8721 C   0  0  0  0  0  0  0  0  0  0  0  0
   -7.9199    5.6304  -11.2708 C   0  0  0  0  0  0  0  0  0  0  0  0
   -7.8628    4.4120  -11.9484 C   0  0  0  0  0  0  0  0  0  0  0  0
   -7.7243    4.3357  -13.3313 N   0  0  0  0  0  0  0  0  0  0  0  0
   -7.4952    5.4473  -14.3798 C   0  0  0  0  0  0  0  0  0  0  0  0
   -7.3101    6.5912  -14.2413 O   0  0  0  0  0  0  0  0  0  0  0  0
   -7.6443    4.8987  -15.7483 C   0  0  0  0  0  0  0  0  0  0  0  0
   -8.8523    4.2785  -16.1103 C   0  0  0  0  0  0  0  0  0  0  0  0
   -9.1095    3.9123  -17.4316 C   0  0  0  0  0  0  0  0  0  0  0  0
   -8.1607    4.1181  -18.4293 C   0  0  0  0  0  0  0  0  0  0  0  0
   -6.9594    4.7112  -18.0410 C   0  0  0  0  0  0  0  0  0  0  0  0
   -5.8503    5.0594  -18.7628 N   0  0  0  0  0  0  0  0  0  0  0  0
   -4.9398    5.6051  -17.9024 C   0  0  0  0  0  0  0  0  0  0  0  0
   -3.5191    6.1035  -18.2712 C   0  0  0  0  0  0  0  0  0  0  0  0
   -2.5122    5.1074  -18.7796 C   0  0  0  0  0  0  0  0  0  0  0  0
   -3.0590    6.1622  -19.7019 C   0  0  0  0  0  0  0  0  0  0  0  0
   -5.4137    5.6725  -16.6793 N   0  0  0  0  0  0  0  0  0  0  0  0
   -6.6700    5.1094  -16.7363 C   0  0  0  0  0  0  0  0  0  0  0  0
   -7.9224    3.2286  -11.2258 C   0  0  0  0  0  0  0  0  0  0  0  0
   -8.0026    3.2686   -9.8286 C   0  0  0  0  0  0  0  0  0  0  0  0
  1  2  2  0
  2  3  1  0
  3  4  1  0
  4  5  1  0
  5  6  1  0
  6  7  1  0
  7  8  2  0
  8  9  1  0
  9 10  2  0
 10 11  1  0
 11 12  1  0
 12 13  2  0
 12 14  1  0
 14 15  2  0
 15 16  1  0
 16 17  2  0
 17 18  1  0
 18 19  1  0
 19 20  1  0
 20 21  1  0
 21 22  1  0
 22 23  1  0
 20 24  2  0
 24 25  1  0
 10 26  1  0
 26 27  2  0
 27  2  1  0
 27  7  1  0
 25 14  1  0
 25 18  2  0
 23 21  1  0
M  END
>  <name>  (1103) 
P139522

>  <alias>  (1103) 
None

>  <smina_score_min>  (1103) 
-9.336

>  <exports>  (1103) 
['/opt/xchem-fragalysis-2/maxwin/BulkDock/OUTPUTS/openbind_xx01zvns2b_c2_elabs_1LOUTNY.sdf', '/opt/xchem-fragalysis-2/maxwin/BulkDock/OUTPUTS/openbind_xx01zvns2b_c2_elabs_1LSYIIV.sdf']

>  <tags>  (1103) 
syndirella_placed,openbind_xx01zvns2b_c2_elabs,openbind_xx01zvns2b_c2_elabs_scored_6.2plus,syndirella_product,openbind_xx01zvns2b_c2_elabs_scored,openbind_xx01zvns2b_c2_elabs_scored_top80percent,BulkDock Fragalysis export

>  <subsites>  (1103) 
1 - Z4590/B/203/1

>  <smiles>  (1103) 
O=C1NCCCc2ccc(NC(=O)c3cccc4[nH]c(C5CC5)nc34)cc21

>  <HIPPO Pose ID>  (1103) 
139522

>  <energy_score>  (1103) 
-19.931757

>  <inchikey>  (1103) 
LTYXHIXFUVKXFY-UHFFFAOYSA-N

>  <gnina_score_min>  (1103) 
6.319

>  <gnina_score>  (1103) 
6.151

>  <ref_mols>  (1103) 
Z3094a

>  <HIPPO Compound ID>  (1103) 
197813

>  <distance_score>  (1103) 
0.751485

>  <rmsd(smina/fragmenstein)>  (1103) 
0.64

>  <ref_pdb>  (1103) 
Z3094a

>  <inspiration_score>  (1103) 
None

$$$$
P139525
     RDKit          3D

 28 32  0  0  0  0  0  0  0  0999 V2000
   -6.9098    7.2232  -12.0016 C   0  0  0  0  0  0  0  0  0  0  0  0
   -7.3390    5.9670  -11.3040 C   0  0  0  0  0  0  0  0  0  0  0  0
   -7.2111    5.9940   -9.9089 C   0  0  0  0  0  0  0  0  0  0  0  0
   -7.6580    4.9472   -9.1153 C   0  0  0  0  0  0  0  0  0  0  0  0
   -8.3215    3.8590   -9.6663 C   0  0  0  0  0  0  0  0  0  0  0  0
   -9.0259    2.7987   -8.8297 C   0  0  0  0  0  0  0  0  0  0  0  0
   -8.8313    2.7858   -7.3709 N   0  0  0  0  0  0  0  0  0  0  0  0
   -9.5498    1.6626   -6.7526 C   0  0  0  0  0  0  0  0  0  0  0  0
  -10.5108    2.2536   -5.7396 C   0  0  0  0  0  0  0  0  0  0  0  0
   -9.7922    3.4977   -5.2958 C   0  0  0  0  0  0  0  0  0  0  0  0
   -9.1295    3.9740   -6.5753 C   0  0  0  0  0  0  0  0  0  0  0  0
   -8.3625    3.7837  -11.0785 C   0  0  0  0  0  0  0  0  0  0  0  0
   -7.8306    4.8005  -11.9103 C   0  0  0  0  0  0  0  0  0  0  0  0
   -7.8238    4.5303  -13.2944 N   0  0  0  0  0  0  0  0  0  0  0  0
   -7.2252    5.3431  -14.4805 C   0  0  0  0  0  0  0  0  0  0  0  0
   -6.5809    6.3200  -14.4813 O   0  0  0  0  0  0  0  0  0  0  0  0
   -7.5808    4.7826  -15.8119 C   0  0  0  0  0  0  0  0  0  0  0  0
   -8.8569    4.2619  -16.0777 C   0  0  0  0  0  0  0  0  0  0  0  0
   -9.2522    3.9425  -17.3800 C   0  0  0  0  0  0  0  0  0  0  0  0
   -8.3893    4.1050  -18.4607 C   0  0  0  0  0  0  0  0  0  0  0  0
   -7.1301    4.6289  -18.1792 C   0  0  0  0  0  0  0  0  0  0  0  0
   -6.0943    4.9874  -19.0027 N   0  0  0  0  0  0  0  0  0  0  0  0
   -5.0874    5.4806  -18.2219 C   0  0  0  0  0  0  0  0  0  0  0  0
   -3.7318    6.0454  -18.7114 C   0  0  0  0  0  0  0  0  0  0  0  0
   -3.1981    5.7171  -20.0763 C   0  0  0  0  0  0  0  0  0  0  0  0
   -2.5723    5.0975  -18.8579 C   0  0  0  0  0  0  0  0  0  0  0  0
   -5.4189    5.4758  -16.9538 N   0  0  0  0  0  0  0  0  0  0  0  0
   -6.6977    4.9625  -16.8979 C   0  0  0  0  0  0  0  0  0  0  0  0
  1  2  1  0
  2  3  2  0
  3  4  1  0
  4  5  2  0
  5  6  1  0
  6  7  1  0
  7  8  1  0
  8  9  1  0
  9 10  1  0
 10 11  1  0
  5 12  1  0
 12 13  2  0
 13 14  1  0
 14 15  1  0
 15 16  2  0
 15 17  1  0
 17 18  2  0
 18 19  1  0
 19 20  2  0
 20 21  1  0
 21 22  1  0
 22 23  1  0
 23 24  1  0
 24 25  1  0
 25 26  1  0
 23 27  2  0
 27 28  1  0
 13  2  1  0
 28 17  1  0
 11  7  1  0
 28 21  2  0
 26 24  1  0
M  END
>  <name>  (1104) 
P139525

>  <alias>  (1104) 
None

>  <smina_score_min>  (1104) 
-8.731

>  <exports>  (1104) 
['/opt/xchem-fragalysis-2/maxwin/BulkDock/OUTPUTS/openbind_xx01zvns2b_c2_elabs_1LOUTNY.sdf', '/opt/xchem-fragalysis-2/maxwin/BulkDock/OUTPUTS/openbind_xx01zvns2b_c2_elabs_1LSYIIV.sdf']

>  <tags>  (1104) 
syndirella_placed,openbind_xx01zvns2b_c2_elabs,openbind_xx01zvns2b_c2_elabs_scored_6.2plus,syndirella_product,openbind_xx01zvns2b_c2_elabs_scored,openbind_xx01zvns2b_c2_elabs_scored_top80percent,BulkDock Fragalysis export

>  <subsites>  (1104) 
1 - Z4590/B/203/1

>  <smiles>  (1104) 
Cc1ccc(CN2CCCC2)cc1NC(=O)c1cccc2[nH]c(C3CC3)nc12

>  <HIPPO Pose ID>  (1104) 
139525

>  <energy_score>  (1104) 
-15.320425

>  <inchikey>  (1104) 
RSEOTRYUPJDHRV-UHFFFAOYSA-N

>  <gnina_score_min>  (1104) 
6.384

>  <gnina_score>  (1104) 
6.186

>  <ref_mols>  (1104) 
Z3094a

>  <HIPPO Compound ID>  (1104) 
197823

>  <distance_score>  (1104) 
0.669129

>  <rmsd(smina/fragmenstein)>  (1104) 
0.471

>  <ref_pdb>  (1104) 
Z3094a

>  <inspiration_score>  (1104) 
None

$$$$
P139526
     RDKit          3D

 28 32  0  0  0  0  0  0  0  0999 V2000
   -9.5664    2.3584   -6.5710 C   0  0  0  0  0  0  0  0  0  0  0  0
   -8.9061    3.4656   -7.2767 N   0  0  0  0  0  0  0  0  0  0  0  0
   -7.8823    4.0124   -6.3779 C   0  0  0  0  0  0  0  0  0  0  0  0
   -8.3824    3.1005   -8.6194 C   0  0  1  0  0  0  0  0  0  0  0  0
   -9.3917    2.2520   -9.3998 C   0  0  0  0  0  0  0  0  0  0  0  0
   -9.2040    2.3355  -10.9025 C   0  0  0  0  0  0  0  0  0  0  0  0
   -7.8874    2.6776  -11.3087 O   0  0  0  0  0  0  0  0  0  0  0  0
   -7.7098    3.9725  -10.8791 C   0  0  0  0  0  0  0  0  0  0  0  0
   -7.3508    4.9517  -11.8120 C   0  0  0  0  0  0  0  0  0  0  0  0
   -7.3435    4.6543  -13.1787 N   0  0  0  0  0  0  0  0  0  0  0  0
   -7.0830    5.5664  -14.4070 C   0  0  0  0  0  0  0  0  0  0  0  0
   -6.7586    6.6884  -14.4623 O   0  0  0  0  0  0  0  0  0  0  0  0
   -7.4050    4.8813  -15.6856 C   0  0  0  0  0  0  0  0  0  0  0  0
   -8.7149    4.3827  -15.8422 C   0  0  0  0  0  0  0  0  0  0  0  0
   -9.2168    4.0331  -17.0975 C   0  0  0  0  0  0  0  0  0  0  0  0
   -8.4340    4.1397  -18.2403 C   0  0  0  0  0  0  0  0  0  0  0  0
   -7.1404    4.6229  -18.0616 C   0  0  0  0  0  0  0  0  0  0  0  0
   -6.1667    4.9048  -18.9785 N   0  0  0  0  0  0  0  0  0  0  0  0
   -5.0551    5.3072  -18.2979 C   0  0  0  0  0  0  0  0  0  0  0  0
   -3.6834    5.5585  -18.9771 C   0  0  0  0  0  0  0  0  0  0  0  0
   -2.9198    6.8073  -18.6534 C   0  0  0  0  0  0  0  0  0  0  0  0
   -2.4328    5.4755  -18.1470 C   0  0  0  0  0  0  0  0  0  0  0  0
   -5.2937    5.4264  -17.0097 N   0  0  0  0  0  0  0  0  0  0  0  0
   -6.5926    4.9894  -16.8302 C   0  0  0  0  0  0  0  0  0  0  0  0
   -7.2070    6.2599  -11.3681 C   0  0  0  0  0  0  0  0  0  0  0  0
   -7.4964    6.5848  -10.0400 C   0  0  0  0  0  0  0  0  0  0  0  0
   -7.9110    5.6051   -9.1346 C   0  0  0  0  0  0  0  0  0  0  0  0
   -7.9943    4.2706   -9.5271 C   0  0  0  0  0  0  0  0  0  0  0  0
  1  2  1  0
  2  3  1  0
  4  2  1  1
  4  5  1  0
  5  6  1  0
  6  7  1  0
  7  8  1  0
  8  9  2  0
  9 10  1  0
 10 11  1  0
 11 12  2  0
 11 13  1  0
 13 14  2  0
 14 15  1  0
 15 16  2  0
 16 17  1  0
 17 18  1  0
 18 19  1  0
 19 20  1  0
 20 21  1  0
 21 22  1  0
 19 23  2  0
 23 24  1  0
  9 25  1  0
 25 26  2  0
 26 27  1  0
 27 28  2  0
 28  4  1  0
 28  8  1  0
 24 13  1  0
 24 17  2  0
 22 20  1  0
M  END
>  <name>  (1105) 
P139526

>  <alias>  (1105) 
None

>  <smina_score_min>  (1105) 
-8.73

>  <exports>  (1105) 
['/opt/xchem-fragalysis-2/maxwin/BulkDock/OUTPUTS/openbind_xx01zvns2b_c2_elabs_1LOUTNY.sdf', '/opt/xchem-fragalysis-2/maxwin/BulkDock/OUTPUTS/openbind_xx01zvns2b_c2_elabs_1LSYIIV.sdf']

>  <tags>  (1105) 
syndirella_placed,openbind_xx01zvns2b_c2_elabs,openbind_xx01zvns2b_c2_elabs_scored_6.2plus,syndirella_product,openbind_xx01zvns2b_c2_elabs_scored,openbind_xx01zvns2b_c2_elabs_scored_top80percent,BulkDock Fragalysis export

>  <subsites>  (1105) 
1 - Z4590/B/203/1

>  <smiles>  (1105) 
CN(C)[C@H]1CCOc2c(NC(=O)c3cccc4[nH]c(C5CC5)nc34)cccc21

>  <HIPPO Pose ID>  (1105) 
139526

>  <energy_score>  (1105) 
-26.335761

>  <inchikey>  (1105) 
VQAQVOVLGSSOJH-SFHVURJKSA-N

>  <gnina_score_min>  (1105) 
6.268

>  <gnina_score>  (1105) 
6.199

>  <ref_mols>  (1105) 
Z3094a

>  <HIPPO Compound ID>  (1105) 
197824

>  <distance_score>  (1105) 
0.989445

>  <rmsd(smina/fragmenstein)>  (1105) 
0.675

>  <ref_pdb>  (1105) 
Z3094a

>  <inspiration_score>  (1105) 
None

$$$$
P139528
     RDKit          3D

 28 32  0  0  0  0  0  0  0  0999 V2000
   -6.7891    6.6811  -14.6028 O   0  0  0  0  0  0  0  0  0  0  0  0
   -7.2169    5.5990  -14.6085 C   0  0  0  0  0  0  0  0  0  0  0  0
   -7.6717    4.7020  -13.4473 N   0  0  0  0  0  0  0  0  0  0  0  0
   -7.7854    4.9790  -12.0471 C   0  0  2  0  0  0  0  0  0  0  0  0
   -7.1142    6.2300  -11.4921 C   0  0  0  0  0  0  0  0  0  0  0  0
   -7.2800    6.3439   -9.9557 C   0  0  0  0  0  0  0  0  0  0  0  0
   -8.2524    5.3199   -9.3366 C   0  0  0  0  0  0  0  0  0  0  0  0
   -7.9189    3.9352   -9.8232 C   0  0  0  0  0  0  0  0  0  0  0  0
   -7.8995    2.8393   -8.9762 C   0  0  0  0  0  0  0  0  0  0  0  0
   -7.1878    1.7156   -9.3760 C   0  0  0  0  0  0  0  0  0  0  0  0
   -6.4906    1.7155  -10.5916 C   0  0  0  0  0  0  0  0  0  0  0  0
   -5.4145    0.7482  -10.8166 N   0  0  0  0  0  0  0  0  0  0  0  0
   -4.4676    1.1248  -11.5266 O   0  0  0  0  0  0  0  0  0  0  0  0
   -5.4428   -0.3221  -10.1892 O   0  0  0  0  0  0  0  0  0  0  0  0
   -6.6927    2.7288  -11.5231 C   0  0  0  0  0  0  0  0  0  0  0  0
   -7.4814    3.8126  -11.1568 C   0  0  0  0  0  0  0  0  0  0  0  0
   -7.4916    4.9328  -15.9117 C   0  0  0  0  0  0  0  0  0  0  0  0
   -8.7840    4.4025  -16.1308 C   0  0  0  0  0  0  0  0  0  0  0  0
   -9.2069    3.9931  -17.3944 C   0  0  0  0  0  0  0  0  0  0  0  0
   -8.3563    4.0810  -18.4874 C   0  0  0  0  0  0  0  0  0  0  0  0
   -7.0841    4.5995  -18.2515 C   0  0  0  0  0  0  0  0  0  0  0  0
   -6.0549    4.8531  -19.1139 N   0  0  0  0  0  0  0  0  0  0  0  0
   -4.9936    5.2980  -18.3821 C   0  0  0  0  0  0  0  0  0  0  0  0
   -3.5821    5.5260  -18.9810 C   0  0  0  0  0  0  0  0  0  0  0  0
   -2.8733    6.8203  -18.7152 C   0  0  0  0  0  0  0  0  0  0  0  0
   -2.3932    5.5508  -18.0626 C   0  0  0  0  0  0  0  0  0  0  0  0
   -5.3182    5.4766  -17.1206 N   0  0  0  0  0  0  0  0  0  0  0  0
   -6.6161    5.0211  -17.0061 C   0  0  0  0  0  0  0  0  0  0  0  0
  1  2  2  0
  2  3  1  0
  4  3  1  6
  4  5  1  0
  5  6  1  0
  6  7  1  0
  7  8  1  0
  8  9  2  0
  9 10  1  0
 10 11  2  0
 11 12  1  0
 12 13  2  0
 12 14  1  0
 11 15  1  0
 15 16  2  0
  2 17  1  0
 17 18  2  0
 18 19  1  0
 19 20  2  0
 20 21  1  0
 21 22  1  0
 22 23  1  0
 23 24  1  0
 24 25  1  0
 25 26  1  0
 23 27  2  0
 27 28  1  0
 16  4  1  0
 28 17  1  0
 16  8  1  0
 28 21  2  0
 26 24  1  0
M  CHG  2  12   1  14  -1
M  END
>  <name>  (1106) 
P139528

>  <alias>  (1106) 
None

>  <smina_score_min>  (1106) 
-8.143

>  <exports>  (1106) 
['/opt/xchem-fragalysis-2/maxwin/BulkDock/OUTPUTS/openbind_xx01zvns2b_c2_elabs_1LOUTNY.sdf', '/opt/xchem-fragalysis-2/maxwin/BulkDock/OUTPUTS/openbind_xx01zvns2b_c2_elabs_1LSYIIV.sdf']

>  <tags>  (1106) 
syndirella_placed,openbind_xx01zvns2b_c2_elabs,openbind_xx01zvns2b_c2_elabs_scored_6.2plus,syndirella_product,openbind_xx01zvns2b_c2_elabs_scored,openbind_xx01zvns2b_c2_elabs_scored_top80percent,BulkDock Fragalysis export

>  <subsites>  (1106) 
1 - Z4590/B/203/1

>  <smiles>  (1106) 
O=C(N[C@@H]1CCCc2ccc([N+](=O)[O-])cc21)c1cccc2[nH]c(C3CC3)nc12

>  <HIPPO Pose ID>  (1106) 
139528

>  <energy_score>  (1106) 
-9.053451

>  <inchikey>  (1106) 
XILXBRWTHQIMJJ-QGZVFWFLSA-N

>  <gnina_score_min>  (1106) 
6.306

>  <gnina_score>  (1106) 
6.345

>  <ref_mols>  (1106) 
Z3094a

>  <HIPPO Compound ID>  (1106) 
197830

>  <distance_score>  (1106) 
0.923984

>  <rmsd(smina/fragmenstein)>  (1106) 
0.687

>  <ref_pdb>  (1106) 
Z3094a

>  <inspiration_score>  (1106) 
None

$$$$
P139537
     RDKit          3D

 28 32  0  0  0  0  0  0  0  0999 V2000
   -4.7859    2.4701   -9.3681 C   0  0  0  0  0  0  0  0  0  0  0  0
   -5.8045    2.2239  -10.4774 C   0  0  1  0  0  0  0  0  0  0  0  0
   -5.3269    1.0229  -11.3345 C   0  0  0  0  0  0  0  0  0  0  0  0
   -4.9232   -0.1229  -10.5788 O   0  0  0  0  0  0  0  0  0  0  0  0
   -7.2386    2.0321  -10.0766 N   0  0  0  0  0  0  0  0  0  0  0  0
   -7.7400    2.9167   -8.9951 C   0  0  0  0  0  0  0  0  0  0  0  0
   -8.0491    4.2046   -9.6939 C   0  0  0  0  0  0  0  0  0  0  0  0
   -8.0057    5.4856   -9.1852 C   0  0  0  0  0  0  0  0  0  0  0  0
   -7.9961    6.5321  -10.1002 C   0  0  0  0  0  0  0  0  0  0  0  0
   -8.0129    6.2736  -11.4838 C   0  0  0  0  0  0  0  0  0  0  0  0
   -8.1047    4.9680  -11.9784 C   0  0  0  0  0  0  0  0  0  0  0  0
   -8.0411    4.7208  -13.3436 N   0  0  0  0  0  0  0  0  0  0  0  0
   -7.5293    5.6063  -14.5000 C   0  0  0  0  0  0  0  0  0  0  0  0
   -7.1526    6.7102  -14.4971 O   0  0  0  0  0  0  0  0  0  0  0  0
   -7.6506    4.9174  -15.8113 C   0  0  0  0  0  0  0  0  0  0  0  0
   -8.8560    4.2839  -16.1629 C   0  0  0  0  0  0  0  0  0  0  0  0
   -9.1067    3.8770  -17.4746 C   0  0  0  0  0  0  0  0  0  0  0  0
   -8.1572    4.0574  -18.4761 C   0  0  0  0  0  0  0  0  0  0  0  0
   -6.9564    4.6576  -18.1003 C   0  0  0  0  0  0  0  0  0  0  0  0
   -5.8513    5.0023  -18.8313 N   0  0  0  0  0  0  0  0  0  0  0  0
   -4.9430    5.5706  -17.9839 C   0  0  0  0  0  0  0  0  0  0  0  0
   -3.5303    6.0832  -18.3610 C   0  0  0  0  0  0  0  0  0  0  0  0
   -2.4997    5.0892  -18.8230 C   0  0  0  0  0  0  0  0  0  0  0  0
   -3.0587    6.0982  -19.7885 C   0  0  0  0  0  0  0  0  0  0  0  0
   -5.4154    5.6555  -16.7626 N   0  0  0  0  0  0  0  0  0  0  0  0
   -6.6704    5.0872  -16.8054 C   0  0  0  0  0  0  0  0  0  0  0  0
   -8.1734    3.9427  -11.0636 C   0  0  0  0  0  0  0  0  0  0  0  0
   -8.0847    2.4608  -11.2333 C   0  0  0  0  0  0  0  0  0  0  0  0
  2  1  1  1
  2  3  1  0
  3  4  1  0
  2  5  1  0
  5  6  1  0
  6  7  1  0
  7  8  2  0
  8  9  1  0
  9 10  2  0
 10 11  1  0
 11 12  1  0
 12 13  1  0
 13 14  2  0
 13 15  1  0
 15 16  2  0
 16 17  1  0
 17 18  2  0
 18 19  1  0
 19 20  1  0
 20 21  1  0
 21 22  1  0
 22 23  1  0
 23 24  1  0
 21 25  2  0
 25 26  1  0
 11 27  2  0
 27 28  1  0
 28  5  1  0
 27  7  1  0
 26 15  1  0
 26 19  2  0
 24 22  1  0
M  END
>  <name>  (1107) 
P139537

>  <alias>  (1107) 
None

>  <smina_score_min>  (1107) 
-8.635

>  <exports>  (1107) 
['/opt/xchem-fragalysis-2/maxwin/BulkDock/OUTPUTS/openbind_xx01zvns2b_c2_elabs_1LOUTNY.sdf', '/opt/xchem-fragalysis-2/maxwin/BulkDock/OUTPUTS/openbind_xx01zvns2b_c2_elabs_1LSYIIV.sdf']

>  <tags>  (1107) 
syndirella_placed,openbind_xx01zvns2b_c2_elabs,openbind_xx01zvns2b_c2_elabs_scored_6.2plus,syndirella_product,openbind_xx01zvns2b_c2_elabs_scored,openbind_xx01zvns2b_c2_elabs_scored_top80percent,BulkDock Fragalysis export

>  <subsites>  (1107) 
1 - Z4590/B/203/1

>  <smiles>  (1107) 
C[C@@H](CO)N1Cc2cccc(NC(=O)c3cccc4[nH]c(C5CC5)nc34)c2C1

>  <HIPPO Pose ID>  (1107) 
139537

>  <energy_score>  (1107) 
-21.771656

>  <inchikey>  (1107) 
VCTUHLVQXVMTEH-ZDUSSCGKSA-N

>  <gnina_score_min>  (1107) 
6.294

>  <gnina_score>  (1107) 
6.308

>  <ref_mols>  (1107) 
Z3094a

>  <HIPPO Compound ID>  (1107) 
197843

>  <distance_score>  (1107) 
0.897182

>  <rmsd(smina/fragmenstein)>  (1107) 
0.684

>  <ref_pdb>  (1107) 
Z3094a

>  <inspiration_score>  (1107) 
None

$$$$
P139539
     RDKit          3D

 28 32  0  0  0  0  0  0  0  0999 V2000
   -7.4100    1.9668   -9.0531 C   0  0  0  0  0  0  0  0  0  0  0  0
   -8.4946    3.0020   -8.7162 C   0  0  2  0  0  0  0  0  0  0  0  0
   -8.3888    4.1220   -9.7463 C   0  0  0  0  0  0  0  0  0  0  0  0
   -8.0876    5.4366   -9.3387 C   0  0  0  0  0  0  0  0  0  0  0  0
   -7.7934    6.4329  -10.2582 C   0  0  0  0  0  0  0  0  0  0  0  0
   -7.7554    6.1276  -11.6081 C   0  0  0  0  0  0  0  0  0  0  0  0
   -8.0516    4.8402  -12.0536 C   0  0  0  0  0  0  0  0  0  0  0  0
   -7.9312    4.5584  -13.4105 N   0  0  0  0  0  0  0  0  0  0  0  0
   -7.4133    5.4360  -14.5784 C   0  0  0  0  0  0  0  0  0  0  0  0
   -6.9363    6.5025  -14.5701 O   0  0  0  0  0  0  0  0  0  0  0  0
   -7.6434    4.8079  -15.9009 C   0  0  0  0  0  0  0  0  0  0  0  0
   -8.8806    4.2235  -16.2154 C   0  0  0  0  0  0  0  0  0  0  0  0
   -9.1923    3.8595  -17.5265 C   0  0  0  0  0  0  0  0  0  0  0  0
   -8.2790    4.0414  -18.5619 C   0  0  0  0  0  0  0  0  0  0  0  0
   -7.0535    4.6131  -18.2256 C   0  0  0  0  0  0  0  0  0  0  0  0
   -5.9821    4.9810  -18.9959 N   0  0  0  0  0  0  0  0  0  0  0  0
   -5.0302    5.5097  -18.1701 C   0  0  0  0  0  0  0  0  0  0  0  0
   -3.6479    6.0646  -18.5935 C   0  0  0  0  0  0  0  0  0  0  0  0
   -2.5284    5.0899  -18.8400 C   0  0  0  0  0  0  0  0  0  0  0  0
   -3.1175    5.8662  -19.9851 C   0  0  0  0  0  0  0  0  0  0  0  0
   -5.4376    5.5357  -16.9235 N   0  0  0  0  0  0  0  0  0  0  0  0
   -6.7036    4.9908  -16.9323 C   0  0  0  0  0  0  0  0  0  0  0  0
   -8.4158    3.8519  -11.1352 C   0  0  0  0  0  0  0  0  0  0  0  0
   -8.4027    3.4774   -7.2593 C   0  0  0  0  0  0  0  0  0  0  0  0
   -9.0392    2.4595   -6.5010 O   0  0  0  0  0  0  0  0  0  0  0  0
   -9.8671    1.8109   -7.3647 C   0  0  0  0  0  0  0  0  0  0  0  0
  -10.5818    0.8844   -7.0344 O   0  0  0  0  0  0  0  0  0  0  0  0
   -9.7558    2.3344   -8.6405 N   0  0  0  0  0  0  0  0  0  0  0  0
  2  1  1  6
  2  3  1  0
  3  4  2  0
  4  5  1  0
  5  6  2  0
  6  7  1  0
  7  8  1  0
  8  9  1  0
  9 10  2  0
  9 11  1  0
 11 12  2  0
 12 13  1  0
 13 14  2  0
 14 15  1  0
 15 16  1  0
 16 17  1  0
 17 18  1  0
 18 19  1  0
 19 20  1  0
 17 21  2  0
 21 22  1  0
  7 23  2  0
  2 24  1  0
 24 25  1  0
 25 26  1  0
 26 27  2  0
 26 28  1  0
 28  2  1  0
 23  3  1  0
 22 11  1  0
 22 15  2  0
 20 18  1  0
M  END
>  <name>  (1108) 
P139539

>  <alias>  (1108) 
None

>  <smina_score_min>  (1108) 
-8.35

>  <exports>  (1108) 
['/opt/xchem-fragalysis-2/maxwin/BulkDock/OUTPUTS/openbind_xx01zvns2b_c2_elabs_1LOUTNY.sdf', '/opt/xchem-fragalysis-2/maxwin/BulkDock/OUTPUTS/openbind_xx01zvns2b_c2_elabs_1LSYIIV.sdf']

>  <tags>  (1108) 
syndirella_placed,openbind_xx01zvns2b_c2_elabs,openbind_xx01zvns2b_c2_elabs_scored_6.2plus,syndirella_product,openbind_xx01zvns2b_c2_elabs_scored,openbind_xx01zvns2b_c2_elabs_scored_top80percent,BulkDock Fragalysis export

>  <subsites>  (1108) 
1 - Z4590/B/203/1

>  <smiles>  (1108) 
C[C@]1(c2cccc(NC(=O)c3cccc4[nH]c(C5CC5)nc34)c2)COC(=O)N1

>  <HIPPO Pose ID>  (1108) 
139539

>  <energy_score>  (1108) 
-42.08139

>  <inchikey>  (1108) 
LGOLAYOJNVWLOQ-OAQYLSRUSA-N

>  <gnina_score_min>  (1108) 
6.258

>  <gnina_score>  (1108) 
6.146

>  <ref_mols>  (1108) 
Z3094a

>  <HIPPO Compound ID>  (1108) 
197849

>  <distance_score>  (1108) 
0.711103

>  <rmsd(smina/fragmenstein)>  (1108) 
0.606

>  <ref_pdb>  (1108) 
Z3094a

>  <inspiration_score>  (1108) 
None

$$$$
P139541
     RDKit          3D

 28 32  0  0  0  0  0  0  0  0999 V2000
  -10.3482    2.5293   -5.2192 C   0  0  0  0  0  0  0  0  0  0  0  0
   -9.2826    2.1503   -6.2346 C   0  0  0  0  0  0  0  0  0  0  0  0
   -9.9148    1.7963   -7.5692 C   0  0  0  0  0  0  0  0  0  0  0  0
   -8.9873    1.5981   -8.7708 C   0  0  0  0  0  0  0  0  0  0  0  0
   -8.2236    2.7104   -9.2876 N   0  0  0  0  0  0  0  0  0  0  0  0
   -8.2787    3.9516   -8.5555 C   0  0  0  0  0  0  0  0  0  0  0  0
   -8.0052    4.9874   -9.5753 C   0  0  0  0  0  0  0  0  0  0  0  0
   -7.7884    6.3240   -9.3100 C   0  0  0  0  0  0  0  0  0  0  0  0
   -7.5143    7.1445  -10.3828 C   0  0  0  0  0  0  0  0  0  0  0  0
   -7.4627    6.6084  -11.6750 C   0  0  0  0  0  0  0  0  0  0  0  0
   -7.7014    5.2479  -11.9376 C   0  0  0  0  0  0  0  0  0  0  0  0
   -7.6370    4.8238  -13.2616 N   0  0  0  0  0  0  0  0  0  0  0  0
   -7.1877    5.5781  -14.5391 C   0  0  0  0  0  0  0  0  0  0  0  0
   -6.7296    6.6459  -14.6665 O   0  0  0  0  0  0  0  0  0  0  0  0
   -7.4865    4.8452  -15.7924 C   0  0  0  0  0  0  0  0  0  0  0  0
   -8.7609    4.2984  -16.0122 C   0  0  0  0  0  0  0  0  0  0  0  0
   -9.1715    3.9348  -17.2986 C   0  0  0  0  0  0  0  0  0  0  0  0
   -8.3292    4.0776  -18.4008 C   0  0  0  0  0  0  0  0  0  0  0  0
   -7.0660    4.6112  -18.1549 C   0  0  0  0  0  0  0  0  0  0  0  0
   -6.0505    4.9699  -19.0034 N   0  0  0  0  0  0  0  0  0  0  0  0
   -5.0321    5.4797  -18.2476 C   0  0  0  0  0  0  0  0  0  0  0  0
   -3.6896    6.0446  -18.7692 C   0  0  0  0  0  0  0  0  0  0  0  0
   -2.5207    5.1049  -18.8931 C   0  0  0  0  0  0  0  0  0  0  0  0
   -3.1641    5.6753  -20.1263 C   0  0  0  0  0  0  0  0  0  0  0  0
   -5.3390    5.4929  -16.9734 N   0  0  0  0  0  0  0  0  0  0  0  0
   -6.6149    4.9807  -16.8904 C   0  0  0  0  0  0  0  0  0  0  0  0
   -7.9901    4.4327  -10.8631 C   0  0  0  0  0  0  0  0  0  0  0  0
   -8.3099    2.9763  -10.7353 C   0  0  0  0  0  0  0  0  0  0  0  0
  1  2  1  0
  2  3  1  0
  3  4  1  0
  4  5  1  0
  5  6  1  0
  6  7  1  0
  7  8  2  0
  8  9  1  0
  9 10  2  0
 10 11  1  0
 11 12  1  0
 12 13  1  0
 13 14  2  0
 13 15  1  0
 15 16  2  0
 16 17  1  0
 17 18  2  0
 18 19  1  0
 19 20  1  0
 20 21  1  0
 21 22  1  0
 22 23  1  0
 23 24  1  0
 21 25  2  0
 25 26  1  0
 11 27  2  0
 27 28  1  0
 28  5  1  0
 27  7  1  0
 26 15  1  0
 26 19  2  0
 24 22  1  0
M  END
>  <name>  (1109) 
P139541

>  <alias>  (1109) 
None

>  <smina_score_min>  (1109) 
-8.307

>  <exports>  (1109) 
['/opt/xchem-fragalysis-2/maxwin/BulkDock/OUTPUTS/openbind_xx01zvns2b_c2_elabs_1LOUTNY.sdf', '/opt/xchem-fragalysis-2/maxwin/BulkDock/OUTPUTS/openbind_xx01zvns2b_c2_elabs_1LSYIIV.sdf']

>  <tags>  (1109) 
syndirella_placed,openbind_xx01zvns2b_c2_elabs,openbind_xx01zvns2b_c2_elabs_scored_6.2plus,syndirella_product,openbind_xx01zvns2b_c2_elabs_scored,openbind_xx01zvns2b_c2_elabs_scored_top80percent,BulkDock Fragalysis export

>  <subsites>  (1109) 
1 - Z4590/B/203/1

>  <smiles>  (1109) 
CCCCN1Cc2cccc(NC(=O)c3cccc4[nH]c(C5CC5)nc34)c2C1

>  <HIPPO Pose ID>  (1109) 
139541

>  <energy_score>  (1109) 
-61.787464

>  <inchikey>  (1109) 
KRHZBZWAHXIQLQ-UHFFFAOYSA-N

>  <gnina_score_min>  (1109) 
6.28

>  <gnina_score>  (1109) 
6.191

>  <ref_mols>  (1109) 
Z3094a

>  <HIPPO Compound ID>  (1109) 
197851

>  <distance_score>  (1109) 
1.097102

>  <rmsd(smina/fragmenstein)>  (1109) 
0.621

>  <ref_pdb>  (1109) 
Z3094a

>  <inspiration_score>  (1109) 
None

$$$$
P139543
     RDKit          3D

 28 32  0  0  0  0  0  0  0  0999 V2000
   -6.9176    6.4463  -14.3931 O   0  0  0  0  0  0  0  0  0  0  0  0
   -7.3165    5.3478  -14.4403 C   0  0  0  0  0  0  0  0  0  0  0  0
   -7.7383    4.3806  -13.3005 N   0  0  0  0  0  0  0  0  0  0  0  0
   -7.8421    4.5919  -11.9252 C   0  0  0  0  0  0  0  0  0  0  0  0
   -7.6344    5.8760  -11.4214 C   0  0  0  0  0  0  0  0  0  0  0  0
   -7.8083    6.1390  -10.0706 C   0  0  0  0  0  0  0  0  0  0  0  0
   -8.1756    5.1115   -9.2103 C   0  0  0  0  0  0  0  0  0  0  0  0
   -8.3531    3.7967   -9.6692 C   0  0  0  0  0  0  0  0  0  0  0  0
   -8.6918    2.6457   -8.7208 C   0  0  0  0  0  0  0  0  0  0  0  0
   -9.2504    3.0676   -7.4229 N   0  0  0  0  0  0  0  0  0  0  0  0
   -8.2614    3.4481   -6.4091 C   0  0  0  0  0  0  0  0  0  0  0  0
   -8.9379    4.2956   -5.3412 C   0  0  0  0  0  0  0  0  0  0  0  0
  -10.3645    3.8296   -5.0791 C   0  0  0  0  0  0  0  0  0  0  0  0
  -10.6466    2.3808   -5.4756 C   0  0  0  0  0  0  0  0  0  0  0  0
  -10.0290    1.9763   -6.8197 C   0  0  0  0  0  0  0  0  0  0  0  0
   -8.1910    3.5515  -11.0521 C   0  0  0  0  0  0  0  0  0  0  0  0
   -7.5690    4.7732  -15.7827 C   0  0  0  0  0  0  0  0  0  0  0  0
   -8.8251    4.2236  -16.0872 C   0  0  0  0  0  0  0  0  0  0  0  0
   -9.1738    3.9057  -17.4015 C   0  0  0  0  0  0  0  0  0  0  0  0
   -8.2814    4.1021  -18.4526 C   0  0  0  0  0  0  0  0  0  0  0  0
   -7.0410    4.6483  -18.1274 C   0  0  0  0  0  0  0  0  0  0  0  0
   -5.9867    5.0303  -18.9143 N   0  0  0  0  0  0  0  0  0  0  0  0
   -5.0080    5.5220  -18.0972 C   0  0  0  0  0  0  0  0  0  0  0  0
   -3.6335    6.0795  -18.5425 C   0  0  0  0  0  0  0  0  0  0  0  0
   -2.5221    5.1054  -18.8261 C   0  0  0  0  0  0  0  0  0  0  0  0
   -3.1339    5.8976  -19.9481 C   0  0  0  0  0  0  0  0  0  0  0  0
   -5.3801    5.5081  -16.8389 N   0  0  0  0  0  0  0  0  0  0  0  0
   -6.6537    4.9811  -16.8308 C   0  0  0  0  0  0  0  0  0  0  0  0
  1  2  2  0
  2  3  1  0
  3  4  1  0
  4  5  2  0
  5  6  1  0
  6  7  2  0
  7  8  1  0
  8  9  1  0
  9 10  1  0
 10 11  1  0
 11 12  1  0
 12 13  1  0
 13 14  1  0
 14 15  1  0
  8 16  2  0
  2 17  1  0
 17 18  2  0
 18 19  1  0
 19 20  2  0
 20 21  1  0
 21 22  1  0
 22 23  1  0
 23 24  1  0
 24 25  1  0
 25 26  1  0
 23 27  2  0
 27 28  1  0
 16  4  1  0
 28 17  1  0
 15 10  1  0
 28 21  2  0
 26 24  1  0
M  END
>  <name>  (1110) 
P139543

>  <alias>  (1110) 
None

>  <smina_score_min>  (1110) 
-9.268

>  <exports>  (1110) 
['/opt/xchem-fragalysis-2/maxwin/BulkDock/OUTPUTS/openbind_xx01zvns2b_c2_elabs_1LOUTNY.sdf', '/opt/xchem-fragalysis-2/maxwin/BulkDock/OUTPUTS/openbind_xx01zvns2b_c2_elabs_1LSYIIV.sdf']

>  <tags>  (1110) 
syndirella_placed,openbind_xx01zvns2b_c2_elabs,openbind_xx01zvns2b_c2_elabs_scored_6.2plus,syndirella_product,openbind_xx01zvns2b_c2_elabs_scored,openbind_xx01zvns2b_c2_elabs_scored_top80percent,BulkDock Fragalysis export

>  <subsites>  (1110) 
1 - Z4590/B/203/1

>  <smiles>  (1110) 
O=C(Nc1cccc(CN2CCCCC2)c1)c1cccc2[nH]c(C3CC3)nc12

>  <HIPPO Pose ID>  (1110) 
139543

>  <energy_score>  (1110) 
-30.168005

>  <inchikey>  (1110) 
ZZOQNMKTCVAVKP-UHFFFAOYSA-N

>  <gnina_score_min>  (1110) 
6.308

>  <gnina_score>  (1110) 
6.148

>  <ref_mols>  (1110) 
Z3094a

>  <HIPPO Compound ID>  (1110) 
197854

>  <distance_score>  (1110) 
0.674072

>  <rmsd(smina/fragmenstein)>  (1110) 
0.513

>  <ref_pdb>  (1110) 
Z3094a

>  <inspiration_score>  (1110) 
None

$$$$
P139555
     RDKit          3D

 28 32  0  0  0  0  0  0  0  0999 V2000
   -9.0843    2.6924  -11.3426 C   0  0  0  0  0  0  0  0  0  0  0  0
   -8.4930    4.0036  -11.8616 C   0  0  2  0  0  0  0  0  0  0  0  0
   -8.1738    3.9849  -13.2669 N   0  0  0  0  0  0  0  0  0  0  0  0
   -7.7064    5.1225  -14.2066 C   0  0  0  0  0  0  0  0  0  0  0  0
   -7.4333    6.2325  -13.9723 O   0  0  0  0  0  0  0  0  0  0  0  0
   -7.7239    4.6817  -15.6315 C   0  0  0  0  0  0  0  0  0  0  0  0
   -8.9227    4.1317  -16.1295 C   0  0  0  0  0  0  0  0  0  0  0  0
   -9.1165    3.8649  -17.4838 C   0  0  0  0  0  0  0  0  0  0  0  0
   -8.1108    4.1228  -18.4034 C   0  0  0  0  0  0  0  0  0  0  0  0
   -6.9320    4.6743  -17.9030 C   0  0  0  0  0  0  0  0  0  0  0  0
   -5.7882    5.0564  -18.5468 N   0  0  0  0  0  0  0  0  0  0  0  0
   -4.9192    5.5431  -17.6144 C   0  0  0  0  0  0  0  0  0  0  0  0
   -3.4820    6.0503  -17.9033 C   0  0  0  0  0  0  0  0  0  0  0  0
   -2.5165    5.1416  -18.6162 C   0  0  0  0  0  0  0  0  0  0  0  0
   -3.0421    6.3691  -19.3080 C   0  0  0  0  0  0  0  0  0  0  0  0
   -5.4478    5.5298  -16.4109 N   0  0  0  0  0  0  0  0  0  0  0  0
   -6.7030    4.9715  -16.5558 C   0  0  0  0  0  0  0  0  0  0  0  0
   -7.4117    4.3811  -10.8967 C   0  0  0  0  0  0  0  0  0  0  0  0
   -7.6315    5.4608  -10.0197 C   0  0  0  0  0  0  0  0  0  0  0  0
   -6.8496    5.6092   -8.8847 C   0  0  0  0  0  0  0  0  0  0  0  0
   -5.8294    4.6998   -8.6478 C   0  0  0  0  0  0  0  0  0  0  0  0
   -5.6086    3.6309   -9.5206 C   0  0  0  0  0  0  0  0  0  0  0  0
   -6.3670    3.4840  -10.6626 C   0  0  0  0  0  0  0  0  0  0  0  0
   -4.5854    2.7219   -9.2675 N   0  0  0  0  0  0  0  0  0  0  0  0
   -3.5906    3.0305   -8.3798 C   0  0  0  0  0  0  0  0  0  0  0  0
   -2.6211    2.2965   -8.2025 O   0  0  0  0  0  0  0  0  0  0  0  0
   -3.7431    4.3870   -7.6924 C   0  0  0  0  0  0  0  0  0  0  0  0
   -5.0573    4.9068   -7.5298 O   0  0  0  0  0  0  0  0  0  0  0  0
  2  1  1  1
  2  3  1  0
  3  4  1  0
  4  5  2  0
  4  6  1  0
  6  7  2  0
  7  8  1  0
  8  9  2  0
  9 10  1  0
 10 11  1  0
 11 12  1  0
 12 13  1  0
 13 14  1  0
 14 15  1  0
 12 16  2  0
 16 17  1  0
  2 18  1  0
 18 19  2  0
 19 20  1  0
 20 21  2  0
 21 22  1  0
 22 23  2  0
 22 24  1  0
 24 25  1  0
 25 26  2  0
 25 27  1  0
 27 28  1  0
 17  6  1  0
 23 18  1  0
 17 10  2  0
 28 21  1  0
 15 13  1  0
M  END
>  <name>  (1111) 
P139555

>  <alias>  (1111) 
None

>  <smina_score_min>  (1111) 
-8.349

>  <exports>  (1111) 
['/opt/xchem-fragalysis-2/maxwin/BulkDock/OUTPUTS/openbind_xx01zvns2b_c2_elabs_1LOUTNY.sdf', '/opt/xchem-fragalysis-2/maxwin/BulkDock/OUTPUTS/openbind_xx01zvns2b_c2_elabs_1LSYIIV.sdf']

>  <tags>  (1111) 
syndirella_placed,openbind_xx01zvns2b_c2_elabs,openbind_xx01zvns2b_c2_elabs_scored_6.2plus,syndirella_product,openbind_xx01zvns2b_c2_elabs_scored,openbind_xx01zvns2b_c2_elabs_scored_top80percent,BulkDock Fragalysis export

>  <subsites>  (1111) 
1 - Z4590/B/203/1

>  <smiles>  (1111) 
C[C@H](NC(=O)c1cccc2[nH]c(C3CC3)nc12)c1ccc2c(c1)NC(=O)CO2

>  <HIPPO Pose ID>  (1111) 
139555

>  <energy_score>  (1111) 
-17.52675

>  <inchikey>  (1111) 
OVLFRKBARIELIP-NSHDSACASA-N

>  <gnina_score_min>  (1111) 
6.261

>  <gnina_score>  (1111) 
6.085

>  <ref_mols>  (1111) 
Z3094a

>  <HIPPO Compound ID>  (1111) 
197876

>  <distance_score>  (1111) 
1.537139

>  <rmsd(smina/fragmenstein)>  (1111) 
1.076

>  <ref_pdb>  (1111) 
Z3094a

>  <inspiration_score>  (1111) 
None

$$$$
P139557
     RDKit          3D

 28 32  0  0  0  0  0  0  0  0999 V2000
   -7.8111    2.3132  -11.4876 C   0  0  0  0  0  0  0  0  0  0  0  0
   -7.0621    3.5916  -11.8733 C   0  0  1  0  0  0  0  0  0  0  0  0
   -7.3859    3.8944  -13.2532 N   0  0  0  0  0  0  0  0  0  0  0  0
   -6.9080    5.0419  -14.1659 C   0  0  0  0  0  0  0  0  0  0  0  0
   -6.2401    5.9664  -13.9291 O   0  0  0  0  0  0  0  0  0  0  0  0
   -7.3998    4.8108  -15.5628 C   0  0  0  0  0  0  0  0  0  0  0  0
   -8.7131    4.3649  -15.8117 C   0  0  0  0  0  0  0  0  0  0  0  0
   -9.1695    4.1177  -17.1098 C   0  0  0  0  0  0  0  0  0  0  0  0
   -8.3386    4.3010  -18.2120 C   0  0  0  0  0  0  0  0  0  0  0  0
   -7.0584    4.7879  -17.9512 C   0  0  0  0  0  0  0  0  0  0  0  0
   -6.0392    5.1373  -18.7983 N   0  0  0  0  0  0  0  0  0  0  0  0
   -4.9882    5.5633  -18.0369 C   0  0  0  0  0  0  0  0  0  0  0  0
   -3.6280    6.0850  -18.5615 C   0  0  0  0  0  0  0  0  0  0  0  0
   -3.1859    5.8240  -19.9739 C   0  0  0  0  0  0  0  0  0  0  0  0
   -2.5356    5.0875  -18.8360 C   0  0  0  0  0  0  0  0  0  0  0  0
   -5.2727    5.5197  -16.7570 N   0  0  0  0  0  0  0  0  0  0  0  0
   -6.5646    5.0487  -16.6717 C   0  0  0  0  0  0  0  0  0  0  0  0
   -7.3887    4.6208  -10.8174 C   0  0  0  0  0  0  0  0  0  0  0  0
   -8.0984    5.7912  -11.0543 C   0  0  0  0  0  0  0  0  0  0  0  0
   -8.5264    6.5775   -9.9867 C   0  0  0  0  0  0  0  0  0  0  0  0
   -8.2861    6.1930   -8.6753 C   0  0  0  0  0  0  0  0  0  0  0  0
   -7.4775    5.0933   -8.4287 C   0  0  0  0  0  0  0  0  0  0  0  0
   -6.9825    4.8983   -7.1299 N   0  0  0  0  0  0  0  0  0  0  0  0
   -5.7229    4.4775   -6.7994 C   0  0  0  0  0  0  0  0  0  0  0  0
   -5.5249    4.6413   -5.5096 N   0  0  0  0  0  0  0  0  0  0  0  0
   -6.6723    5.2254   -5.0378 N   0  0  0  0  0  0  0  0  0  0  0  0
   -7.5396    5.4379   -6.0195 N   0  0  0  0  0  0  0  0  0  0  0  0
   -7.0105    4.3252   -9.4910 C   0  0  0  0  0  0  0  0  0  0  0  0
  2  1  1  1
  2  3  1  0
  3  4  1  0
  4  5  2  0
  4  6  1  0
  6  7  2  0
  7  8  1  0
  8  9  2  0
  9 10  1  0
 10 11  1  0
 11 12  1  0
 12 13  1  0
 13 14  1  0
 14 15  1  0
 12 16  2  0
 16 17  1  0
  2 18  1  0
 18 19  2  0
 19 20  1  0
 20 21  2  0
 21 22  1  0
 22 23  1  0
 23 24  1  0
 24 25  2  0
 25 26  1  0
 26 27  2  0
 22 28  2  0
 17  6  1  0
 28 18  1  0
 17 10  2  0
 27 23  1  0
 15 13  1  0
M  END
>  <name>  (1112) 
P139557

>  <alias>  (1112) 
None

>  <smina_score_min>  (1112) 
-8.057

>  <exports>  (1112) 
['/opt/xchem-fragalysis-2/maxwin/BulkDock/OUTPUTS/openbind_xx01zvns2b_c2_elabs_1LOUTNY.sdf', '/opt/xchem-fragalysis-2/maxwin/BulkDock/OUTPUTS/openbind_xx01zvns2b_c2_elabs_1LSYIIV.sdf']

>  <tags>  (1112) 
syndirella_placed,openbind_xx01zvns2b_c2_elabs,openbind_xx01zvns2b_c2_elabs_scored_6.2plus,syndirella_product,openbind_xx01zvns2b_c2_elabs_scored,openbind_xx01zvns2b_c2_elabs_scored_top80percent,BulkDock Fragalysis export

>  <subsites>  (1112) 
1 - Z4590/B/203/1

>  <smiles>  (1112) 
C[C@@H](NC(=O)c1cccc2[nH]c(C3CC3)nc12)c1cccc(-n2cnnn2)c1

>  <HIPPO Pose ID>  (1112) 
139557

>  <energy_score>  (1112) 
-21.824117

>  <inchikey>  (1112) 
YRHQWIYLFMEORN-GFCCVEGCSA-N

>  <gnina_score_min>  (1112) 
6.301

>  <gnina_score>  (1112) 
6.147

>  <ref_mols>  (1112) 
Z3094a

>  <HIPPO Compound ID>  (1112) 
197882

>  <distance_score>  (1112) 
1.48773

>  <rmsd(smina/fragmenstein)>  (1112) 
1.083

>  <ref_pdb>  (1112) 
Z3094a

>  <inspiration_score>  (1112) 
None

$$$$
P139559
     RDKit          3D

 28 31  0  0  0  0  0  0  0  0999 V2000
   -4.4148    0.9678   -9.8813 C   0  0  0  0  0  0  0  0  0  0  0  0
   -5.8798    1.7487  -10.4912 S   0  0  0  0  0  0  0  0  0  0  0  0
   -5.1812    3.3531  -10.8372 C   0  0  0  0  0  0  0  0  0  0  0  0
   -6.1450    1.1066  -11.7662 O   0  0  0  0  0  0  0  0  0  0  0  0
   -6.8708    1.8551   -9.3204 N   0  0  0  0  0  0  0  0  0  0  0  0
   -8.2037    2.3150   -9.4001 C   0  0  0  0  0  0  0  0  0  0  0  0
   -9.1832    1.7976   -8.8772 O   0  0  0  0  0  0  0  0  0  0  0  0
   -8.4355    3.5852  -10.1135 C   0  0  0  0  0  0  0  0  0  0  0  0
   -8.1902    4.7935   -9.4553 C   0  0  0  0  0  0  0  0  0  0  0  0
   -7.9738    5.9398  -10.2154 C   0  0  0  0  0  0  0  0  0  0  0  0
   -7.9443    5.8520  -11.6126 C   0  0  0  0  0  0  0  0  0  0  0  0
   -8.1927    4.6327  -12.2486 C   0  0  0  0  0  0  0  0  0  0  0  0
   -8.0242    4.4561  -13.6118 N   0  0  0  0  0  0  0  0  0  0  0  0
   -7.4618    5.4140  -14.6860 C   0  0  0  0  0  0  0  0  0  0  0  0
   -6.9819    6.4719  -14.5789 O   0  0  0  0  0  0  0  0  0  0  0  0
   -7.7010    4.8501  -16.0375 C   0  0  0  0  0  0  0  0  0  0  0  0
   -8.9650    4.3064  -16.3395 C   0  0  0  0  0  0  0  0  0  0  0  0
   -9.3061    3.9189  -17.6311 C   0  0  0  0  0  0  0  0  0  0  0  0
   -8.3906    4.0396  -18.6659 C   0  0  0  0  0  0  0  0  0  0  0  0
   -7.1392    4.5640  -18.3466 C   0  0  0  0  0  0  0  0  0  0  0  0
   -6.0563    4.8305  -19.1357 N   0  0  0  0  0  0  0  0  0  0  0  0
   -5.0384    5.2419  -18.3256 C   0  0  0  0  0  0  0  0  0  0  0  0
   -3.5845    5.4395  -18.8257 C   0  0  0  0  0  0  0  0  0  0  0  0
   -2.5104    5.8333  -17.8544 C   0  0  0  0  0  0  0  0  0  0  0  0
   -3.0133    6.8265  -18.8685 C   0  0  0  0  0  0  0  0  0  0  0  0
   -5.4442    5.4034  -17.0851 N   0  0  0  0  0  0  0  0  0  0  0  0
   -6.7537    4.9629  -17.0682 C   0  0  0  0  0  0  0  0  0  0  0  0
   -8.5084    3.5077  -11.5020 C   0  0  0  0  0  0  0  0  0  0  0  0
  1  2  1  0
  2  3  1  0
  2  4  2  0
  2  5  2  0
  5  6  1  0
  6  7  2  0
  6  8  1  0
  8  9  2  0
  9 10  1  0
 10 11  2  0
 11 12  1  0
 12 13  1  0
 13 14  1  0
 14 15  2  0
 14 16  1  0
 16 17  2  0
 17 18  1  0
 18 19  2  0
 19 20  1  0
 20 21  1  0
 21 22  1  0
 22 23  1  0
 23 24  1  0
 24 25  1  0
 22 26  2  0
 26 27  1  0
 12 28  2  0
 28  8  1  0
 27 16  1  0
 27 20  2  0
 25 23  1  0
M  END
>  <name>  (1113) 
P139559

>  <alias>  (1113) 
None

>  <smina_score_min>  (1113) 
-8.528

>  <exports>  (1113) 
['/opt/xchem-fragalysis-2/maxwin/BulkDock/OUTPUTS/openbind_xx01zvns2b_c2_elabs_1LOUTNY.sdf', '/opt/xchem-fragalysis-2/maxwin/BulkDock/OUTPUTS/openbind_xx01zvns2b_c2_elabs_1LSYIIV.sdf']

>  <tags>  (1113) 
syndirella_placed,openbind_xx01zvns2b_c2_elabs,openbind_xx01zvns2b_c2_elabs_scored_6.2plus,syndirella_product,openbind_xx01zvns2b_c2_elabs_scored,openbind_xx01zvns2b_c2_elabs_scored_top80percent,BulkDock Fragalysis export

>  <subsites>  (1113) 
1 - Z4590/B/203/1

>  <smiles>  (1113) 
CS(C)(=O)=NC(=O)c1cccc(NC(=O)c2cccc3[nH]c(C4CC4)nc23)c1

>  <HIPPO Pose ID>  (1113) 
139559

>  <energy_score>  (1113) 
-33.627147

>  <inchikey>  (1113) 
WEJRDNXDQKUFFA-UHFFFAOYSA-N

>  <gnina_score_min>  (1113) 
6.338

>  <gnina_score>  (1113) 
6.319

>  <ref_mols>  (1113) 
Z3094a

>  <HIPPO Compound ID>  (1113) 
197884

>  <distance_score>  (1113) 
0.747935

>  <rmsd(smina/fragmenstein)>  (1113) 
0.549

>  <ref_pdb>  (1113) 
Z3094a

>  <inspiration_score>  (1113) 
None

$$$$
P139565
     RDKit          3D

 28 32  0  0  0  0  0  0  0  0999 V2000
   -7.2030    6.6298  -14.5833 O   0  0  0  0  0  0  0  0  0  0  0  0
   -7.5337    5.5152  -14.6507 C   0  0  0  0  0  0  0  0  0  0  0  0
   -7.9617    4.5341  -13.5469 N   0  0  0  0  0  0  0  0  0  0  0  0
   -8.1567    4.7348  -12.1919 C   0  0  0  0  0  0  0  0  0  0  0  0
   -8.0770    5.9983  -11.6055 C   0  0  0  0  0  0  0  0  0  0  0  0
   -8.1677    6.1358  -10.2177 C   0  0  0  0  0  0  0  0  0  0  0  0
   -8.2255    5.0016   -9.4139 C   0  0  0  0  0  0  0  0  0  0  0  0
   -8.2016    3.7366  -10.0150 C   0  0  0  0  0  0  0  0  0  0  0  0
   -7.5620    2.5657   -9.2967 C   0  0  0  0  0  0  0  0  0  0  0  0
   -6.1826    2.5229   -9.8326 N   0  0  0  0  0  0  0  0  0  0  0  0
   -5.5783    1.2080   -9.9367 C   0  0  0  0  0  0  0  0  0  0  0  0
   -4.1979    1.2658  -10.6117 C   0  0  0  0  0  0  0  0  0  0  0  0
   -3.3152    2.1599   -9.9246 O   0  0  0  0  0  0  0  0  0  0  0  0
   -3.8854    3.4751   -9.9137 C   0  0  0  0  0  0  0  0  0  0  0  0
   -5.2556    3.4863   -9.2172 C   0  0  0  0  0  0  0  0  0  0  0  0
   -8.3161    3.6094  -11.4050 C   0  0  0  0  0  0  0  0  0  0  0  0
   -7.6851    4.8914  -15.9853 C   0  0  0  0  0  0  0  0  0  0  0  0
   -8.8907    4.2588  -16.3382 C   0  0  0  0  0  0  0  0  0  0  0  0
   -9.1313    3.8442  -17.6463 C   0  0  0  0  0  0  0  0  0  0  0  0
   -8.1754    4.0296  -18.6408 C   0  0  0  0  0  0  0  0  0  0  0  0
   -6.9813    4.6451  -18.2649 C   0  0  0  0  0  0  0  0  0  0  0  0
   -5.8805    5.0104  -18.9923 N   0  0  0  0  0  0  0  0  0  0  0  0
   -4.9740    5.5691  -18.1357 C   0  0  0  0  0  0  0  0  0  0  0  0
   -3.5655    6.0981  -18.5025 C   0  0  0  0  0  0  0  0  0  0  0  0
   -3.0370    6.0124  -19.9066 C   0  0  0  0  0  0  0  0  0  0  0  0
   -2.4893    5.1025  -18.8416 C   0  0  0  0  0  0  0  0  0  0  0  0
   -5.4460    5.6343  -16.9133 N   0  0  0  0  0  0  0  0  0  0  0  0
   -6.7012    5.0707  -16.9693 C   0  0  0  0  0  0  0  0  0  0  0  0
  1  2  2  0
  2  3  1  0
  3  4  1  0
  4  5  2  0
  5  6  1  0
  6  7  2  0
  7  8  1  0
  8  9  1  0
  9 10  1  0
 10 11  1  0
 11 12  1  0
 12 13  1  0
 13 14  1  0
 14 15  1  0
  8 16  2  0
  2 17  1  0
 17 18  2  0
 18 19  1  0
 19 20  2  0
 20 21  1  0
 21 22  1  0
 22 23  1  0
 23 24  1  0
 24 25  1  0
 25 26  1  0
 23 27  2  0
 27 28  1  0
 16  4  1  0
 28 17  1  0
 15 10  1  0
 28 21  2  0
 26 24  1  0
M  END
>  <name>  (1114) 
P139565

>  <alias>  (1114) 
None

>  <smina_score_min>  (1114) 
-8.298

>  <exports>  (1114) 
['/opt/xchem-fragalysis-2/maxwin/BulkDock/OUTPUTS/openbind_xx01zvns2b_c2_elabs_1LOUTNY.sdf', '/opt/xchem-fragalysis-2/maxwin/BulkDock/OUTPUTS/openbind_xx01zvns2b_c2_elabs_1LSYIIV.sdf']

>  <tags>  (1114) 
syndirella_placed,openbind_xx01zvns2b_c2_elabs,openbind_xx01zvns2b_c2_elabs_scored_6.2plus,syndirella_product,openbind_xx01zvns2b_c2_elabs_scored,openbind_xx01zvns2b_c2_elabs_scored_top80percent,BulkDock Fragalysis export

>  <subsites>  (1114) 
1 - Z4590/B/203/1

>  <smiles>  (1114) 
O=C(Nc1cccc(CN2CCOCC2)c1)c1cccc2[nH]c(C3CC3)nc12

>  <HIPPO Pose ID>  (1114) 
139565

>  <energy_score>  (1114) 
-34.314331

>  <inchikey>  (1114) 
DSJCYSLTSLKMKX-UHFFFAOYSA-N

>  <gnina_score_min>  (1114) 
6.253

>  <gnina_score>  (1114) 
6.201

>  <ref_mols>  (1114) 
Z3094a

>  <HIPPO Compound ID>  (1114) 
197890

>  <distance_score>  (1114) 
0.920725

>  <rmsd(smina/fragmenstein)>  (1114) 
0.534

>  <ref_pdb>  (1114) 
Z3094a

>  <inspiration_score>  (1114) 
None

$$$$
P139570
     RDKit          3D

 28 32  0  0  0  0  0  0  0  0999 V2000
   -6.0723    2.8467  -11.7343 C   0  0  0  0  0  0  0  0  0  0  0  0
   -7.5384    3.1464  -11.9752 C   0  0  2  0  0  0  0  0  0  0  0  0
   -7.7907    3.6017  -13.3217 N   0  0  0  0  0  0  0  0  0  0  0  0
   -7.1114    4.7211  -14.1489 C   0  0  0  0  0  0  0  0  0  0  0  0
   -6.2966    5.4982  -13.8432 O   0  0  0  0  0  0  0  0  0  0  0  0
   -7.5651    4.6594  -15.5814 C   0  0  0  0  0  0  0  0  0  0  0  0
   -8.8771    4.2824  -15.9232 C   0  0  0  0  0  0  0  0  0  0  0  0
   -9.2802    4.1061  -17.2487 C   0  0  0  0  0  0  0  0  0  0  0  0
   -8.3917    4.3097  -18.2973 C   0  0  0  0  0  0  0  0  0  0  0  0
   -7.1178    4.7598  -17.9546 C   0  0  0  0  0  0  0  0  0  0  0  0
   -6.0583    5.1300  -18.7411 N   0  0  0  0  0  0  0  0  0  0  0  0
   -5.0346    5.5052  -17.9192 C   0  0  0  0  0  0  0  0  0  0  0  0
   -3.6531    6.0496  -18.3638 C   0  0  0  0  0  0  0  0  0  0  0  0
   -2.5882    5.0714  -18.7787 C   0  0  0  0  0  0  0  0  0  0  0  0
   -3.2117    5.9817  -19.7999 C   0  0  0  0  0  0  0  0  0  0  0  0
   -5.3698    5.3907  -16.6555 N   0  0  0  0  0  0  0  0  0  0  0  0
   -6.6759    4.9433  -16.6420 C   0  0  0  0  0  0  0  0  0  0  0  0
   -8.0156    3.9903  -10.8265 C   0  0  0  0  0  0  0  0  0  0  0  0
   -7.7710    5.3602  -10.7439 C   0  0  0  0  0  0  0  0  0  0  0  0
   -7.9668    6.0187   -9.5397 C   0  0  0  0  0  0  0  0  0  0  0  0
   -8.4008    5.3169   -8.4155 C   0  0  0  0  0  0  0  0  0  0  0  0
   -8.6864    3.9497   -8.4788 C   0  0  0  0  0  0  0  0  0  0  0  0
   -9.1970    3.2655   -7.3384 N   0  0  0  0  0  0  0  0  0  0  0  0
   -9.6763    1.9748   -7.2909 C   0  0  0  0  0  0  0  0  0  0  0  0
  -10.2834    1.7683   -6.0730 C   0  0  0  0  0  0  0  0  0  0  0  0
  -10.1049    2.9314   -5.3063 C   0  0  0  0  0  0  0  0  0  0  0  0
   -9.4068    3.8223   -6.0856 C   0  0  0  0  0  0  0  0  0  0  0  0
   -8.4973    3.2961   -9.6918 C   0  0  0  0  0  0  0  0  0  0  0  0
  2  1  1  1
  2  3  1  0
  3  4  1  0
  4  5  2  0
  4  6  1  0
  6  7  2  0
  7  8  1  0
  8  9  2  0
  9 10  1  0
 10 11  1  0
 11 12  1  0
 12 13  1  0
 13 14  1  0
 14 15  1  0
 12 16  2  0
 16 17  1  0
  2 18  1  0
 18 19  2  0
 19 20  1  0
 20 21  2  0
 21 22  1  0
 22 23  1  0
 23 24  1  0
 24 25  2  0
 25 26  1  0
 26 27  2  0
 22 28  2  0
 17  6  1  0
 28 18  1  0
 17 10  2  0
 27 23  1  0
 15 13  1  0
M  END
>  <name>  (1115) 
P139570

>  <alias>  (1115) 
None

>  <smina_score_min>  (1115) 
-8.924

>  <exports>  (1115) 
['/opt/xchem-fragalysis-2/maxwin/BulkDock/OUTPUTS/openbind_xx01zvns2b_c2_elabs_1LOUTNY.sdf', '/opt/xchem-fragalysis-2/maxwin/BulkDock/OUTPUTS/openbind_xx01zvns2b_c2_elabs_1LSYIIV.sdf']

>  <tags>  (1115) 
syndirella_placed,openbind_xx01zvns2b_c2_elabs,openbind_xx01zvns2b_c2_elabs_scored_6.2plus,syndirella_product,openbind_xx01zvns2b_c2_elabs_scored,openbind_xx01zvns2b_c2_elabs_scored_top80percent,BulkDock Fragalysis export

>  <subsites>  (1115) 
1 - Z4590/B/203/1

>  <smiles>  (1115) 
C[C@H](NC(=O)c1cccc2[nH]c(C3CC3)nc12)c1cccc(-n2cccc2)c1

>  <HIPPO Pose ID>  (1115) 
139570

>  <energy_score>  (1115) 
-20.551196

>  <inchikey>  (1115) 
AFZODWZQBMZMNU-HNNXBMFYSA-N

>  <gnina_score_min>  (1115) 
6.324

>  <gnina_score>  (1115) 
6.317

>  <ref_mols>  (1115) 
Z3094a

>  <HIPPO Compound ID>  (1115) 
197897

>  <distance_score>  (1115) 
1.174013

>  <rmsd(smina/fragmenstein)>  (1115) 
0.622

>  <ref_pdb>  (1115) 
Z3094a

>  <inspiration_score>  (1115) 
None

$$$$
P139579
     RDKit          3D

 29 32  0  0  0  0  0  0  0  0999 V2000
   -6.6049    5.9129  -13.7990 O   0  0  0  0  0  0  0  0  0  0  0  0
   -7.1745    4.9596  -14.1454 C   0  0  0  0  0  0  0  0  0  0  0  0
   -7.5140    3.6684  -13.3813 N   0  0  0  0  0  0  0  0  0  0  0  0
   -7.1382    3.2352  -12.0486 C   0  0  2  0  0  0  0  0  0  0  0  0
   -7.9201    3.7781  -10.8757 C   0  0  0  0  0  0  0  0  0  0  0  0
   -7.8305    5.1167  -10.4766 C   0  0  0  0  0  0  0  0  0  0  0  0
   -8.2064    5.4807   -9.1843 C   0  0  0  0  0  0  0  0  0  0  0  0
   -8.6903    4.5213   -8.2914 C   0  0  0  0  0  0  0  0  0  0  0  0
   -8.8620    3.2019   -8.7097 C   0  0  0  0  0  0  0  0  0  0  0  0
   -9.4118    2.2048   -7.7898 N   0  0  0  0  0  0  0  0  0  0  0  0
   -9.8748    1.1679   -8.2841 O   0  0  0  0  0  0  0  0  0  0  0  0
   -9.4543    2.5015   -6.5864 O   0  0  0  0  0  0  0  0  0  0  0  0
   -8.4950    2.8331   -9.9998 C   0  0  0  0  0  0  0  0  0  0  0  0
   -5.6330    3.3266  -11.7403 C   0  0  0  0  0  0  0  0  0  0  0  0
   -5.1878    4.5903  -11.5592 F   0  0  0  0  0  0  0  0  0  0  0  0
   -4.8847    2.7802  -12.7315 F   0  0  0  0  0  0  0  0  0  0  0  0
   -5.3184    2.6336  -10.6131 F   0  0  0  0  0  0  0  0  0  0  0  0
   -7.6109    4.8144  -15.5686 C   0  0  0  0  0  0  0  0  0  0  0  0
   -8.8925    4.3424  -15.8937 C   0  0  0  0  0  0  0  0  0  0  0  0
   -9.2717    4.1015  -17.2166 C   0  0  0  0  0  0  0  0  0  0  0  0
   -8.3802    4.3005  -18.2669 C   0  0  0  0  0  0  0  0  0  0  0  0
   -7.1223    4.7992  -17.9305 C   0  0  0  0  0  0  0  0  0  0  0  0
   -6.0528    5.1452  -18.7137 N   0  0  0  0  0  0  0  0  0  0  0  0
   -5.0512    5.5786  -17.8917 C   0  0  0  0  0  0  0  0  0  0  0  0
   -3.6570    6.0925  -18.3352 C   0  0  0  0  0  0  0  0  0  0  0  0
   -3.2170    6.0225  -19.7718 C   0  0  0  0  0  0  0  0  0  0  0  0
   -2.6162    5.0910  -18.7561 C   0  0  0  0  0  0  0  0  0  0  0  0
   -5.4170    5.5435  -16.6310 N   0  0  0  0  0  0  0  0  0  0  0  0
   -6.7106    5.0666  -16.6238 C   0  0  0  0  0  0  0  0  0  0  0  0
  1  2  2  0
  2  3  1  0
  4  3  1  6
  4  5  1  0
  5  6  2  0
  6  7  1  0
  7  8  2  0
  8  9  1  0
  9 10  1  0
 10 11  2  0
 10 12  1  0
  9 13  2  0
  4 14  1  0
 14 15  1  0
 14 16  1  0
 14 17  1  0
  2 18  1  0
 18 19  2  0
 19 20  1  0
 20 21  2  0
 21 22  1  0
 22 23  1  0
 23 24  1  0
 24 25  1  0
 25 26  1  0
 26 27  1  0
 24 28  2  0
 28 29  1  0
 13  5  1  0
 29 18  1  0
 29 22  2  0
 27 25  1  0
M  CHG  2  10   1  12  -1
M  END
>  <name>  (1116) 
P139579

>  <alias>  (1116) 
None

>  <smina_score_min>  (1116) 
-8.308

>  <exports>  (1116) 
['/opt/xchem-fragalysis-2/maxwin/BulkDock/OUTPUTS/openbind_xx01zvns2b_c2_elabs_1LOUTNY.sdf', '/opt/xchem-fragalysis-2/maxwin/BulkDock/OUTPUTS/openbind_xx01zvns2b_c2_elabs_1LSYIIV.sdf']

>  <tags>  (1116) 
syndirella_placed,openbind_xx01zvns2b_c2_elabs,openbind_xx01zvns2b_c2_elabs_scored_6.2plus,syndirella_product,openbind_xx01zvns2b_c2_elabs_scored,openbind_xx01zvns2b_c2_elabs_scored_top80percent,BulkDock Fragalysis export

>  <subsites>  (1116) 
1 - Z4590/B/203/1

>  <smiles>  (1116) 
O=C(N[C@H](c1cccc([N+](=O)[O-])c1)C(F)(F)F)c1cccc2[nH]c(C3CC3)nc12

>  <HIPPO Pose ID>  (1116) 
139579

>  <energy_score>  (1116) 
-9.700261

>  <inchikey>  (1116) 
FOQRAZSIHASFJD-MRXNPFEDSA-N

>  <gnina_score_min>  (1116) 
6.246

>  <gnina_score>  (1116) 
6.253

>  <ref_mols>  (1116) 
Z3094a

>  <HIPPO Compound ID>  (1116) 
197911

>  <distance_score>  (1116) 
1.087043

>  <rmsd(smina/fragmenstein)>  (1116) 
0.652

>  <ref_pdb>  (1116) 
Z3094a

>  <inspiration_score>  (1116) 
None

$$$$
P139584
     RDKit          3D

 29 33  0  0  0  0  0  0  0  0999 V2000
   -8.5612    2.5907   -5.6450 C   0  0  0  0  0  0  0  0  0  0  0  0
   -9.4942    3.0663   -7.0394 S   0  0  0  0  0  0  0  0  0  0  0  0
  -10.6723    2.2361   -7.0120 O   0  0  0  0  0  0  0  0  0  0  0  0
   -9.5726    4.5135   -6.9781 O   0  0  0  0  0  0  0  0  0  0  0  0
   -8.5497    2.6168   -8.3598 N   0  0  0  0  0  0  0  0  0  0  0  0
   -9.2632    2.3778   -9.6528 C   0  0  0  0  0  0  0  0  0  0  0  0
   -8.4038    2.6624  -10.9250 C   0  0  0  0  0  0  0  0  0  0  0  0
   -7.8578    4.0672  -10.8636 C   0  0  0  0  0  0  0  0  0  0  0  0
   -7.4924    4.4758   -9.5631 C   0  0  0  0  0  0  0  0  0  0  0  0
   -7.2032    5.8022   -9.2610 C   0  0  0  0  0  0  0  0  0  0  0  0
   -7.1574    6.7239  -10.2847 C   0  0  0  0  0  0  0  0  0  0  0  0
   -7.3221    6.2921  -11.5984 C   0  0  0  0  0  0  0  0  0  0  0  0
   -7.6393    4.9609  -11.9123 C   0  0  0  0  0  0  0  0  0  0  0  0
   -7.6355    4.6070  -13.2660 N   0  0  0  0  0  0  0  0  0  0  0  0
   -7.2502    5.4375  -14.5277 C   0  0  0  0  0  0  0  0  0  0  0  0
   -6.8048    6.5171  -14.6184 O   0  0  0  0  0  0  0  0  0  0  0  0
   -7.6005    4.7777  -15.8061 C   0  0  0  0  0  0  0  0  0  0  0  0
   -8.9052    4.2998  -15.9972 C   0  0  0  0  0  0  0  0  0  0  0  0
   -9.3796    3.9811  -17.2718 C   0  0  0  0  0  0  0  0  0  0  0  0
   -8.5649    4.0852  -18.3934 C   0  0  0  0  0  0  0  0  0  0  0  0
   -7.2687    4.5431  -18.1784 C   0  0  0  0  0  0  0  0  0  0  0  0
   -6.2625    4.8178  -19.0628 N   0  0  0  0  0  0  0  0  0  0  0  0
   -5.1678    5.2068  -18.3468 C   0  0  0  0  0  0  0  0  0  0  0  0
   -3.7733    5.4555  -18.9808 C   0  0  0  0  0  0  0  0  0  0  0  0
   -3.0571    6.7430  -18.6998 C   0  0  0  0  0  0  0  0  0  0  0  0
   -2.5560    5.4567  -18.0987 C   0  0  0  0  0  0  0  0  0  0  0  0
   -5.4450    5.3141  -17.0659 N   0  0  0  0  0  0  0  0  0  0  0  0
   -6.7533    4.8866  -16.9297 C   0  0  0  0  0  0  0  0  0  0  0  0
   -7.3414    3.4103   -8.5197 C   0  0  0  0  0  0  0  0  0  0  0  0
  1  2  1  0
  2  3  2  0
  2  4  2  0
  2  5  1  0
  5  6  1  0
  6  7  1  0
  7  8  1  0
  8  9  2  0
  9 10  1  0
 10 11  2  0
 11 12  1  0
 12 13  2  0
 13 14  1  0
 14 15  1  0
 15 16  2  0
 15 17  1  0
 17 18  2  0
 18 19  1  0
 19 20  2  0
 20 21  1  0
 21 22  1  0
 22 23  1  0
 23 24  1  0
 24 25  1  0
 25 26  1  0
 23 27  2  0
 27 28  1  0
  9 29  1  0
 29  5  1  0
 13  8  1  0
 28 17  1  0
 28 21  2  0
 26 24  1  0
M  END
>  <name>  (1117) 
P139584

>  <alias>  (1117) 
None

>  <smina_score_min>  (1117) 
-8.131

>  <exports>  (1117) 
['/opt/xchem-fragalysis-2/maxwin/BulkDock/OUTPUTS/openbind_xx01zvns2b_c2_elabs_1LOUTNY.sdf', '/opt/xchem-fragalysis-2/maxwin/BulkDock/OUTPUTS/openbind_xx01zvns2b_c2_elabs_1LSYIIV.sdf']

>  <tags>  (1117) 
syndirella_placed,openbind_xx01zvns2b_c2_elabs,openbind_xx01zvns2b_c2_elabs_scored_6.2plus,syndirella_product,openbind_xx01zvns2b_c2_elabs_scored,openbind_xx01zvns2b_c2_elabs_scored_top80percent,BulkDock Fragalysis export

>  <subsites>  (1117) 
1 - Z4590/B/203/1

>  <smiles>  (1117) 
CS(=O)(=O)N1CCc2c(cccc2NC(=O)c2cccc3[nH]c(C4CC4)nc23)C1

>  <HIPPO Pose ID>  (1117) 
139584

>  <energy_score>  (1117) 
-24.517692

>  <inchikey>  (1117) 
ZUMXHAGNPFKFAK-UHFFFAOYSA-N

>  <gnina_score_min>  (1117) 
6.253

>  <gnina_score>  (1117) 
6.127

>  <ref_mols>  (1117) 
Z3094a

>  <HIPPO Compound ID>  (1117) 
197917

>  <distance_score>  (1117) 
1.034645

>  <rmsd(smina/fragmenstein)>  (1117) 
1.205

>  <ref_pdb>  (1117) 
Z3094a

>  <inspiration_score>  (1117) 
None

$$$$
P139587
     RDKit          3D

 29 33  0  0  0  0  0  0  0  0999 V2000
   -6.6905    2.1303  -11.5922 C   0  0  0  0  0  0  0  0  0  0  0  0
   -6.7709    3.6300  -11.8357 C   0  0  1  0  0  0  0  0  0  0  0  0
   -7.2052    3.8855  -13.1940 N   0  0  0  0  0  0  0  0  0  0  0  0
   -6.9060    5.0719  -14.1363 C   0  0  0  0  0  0  0  0  0  0  0  0
   -6.3270    6.0649  -13.9405 O   0  0  0  0  0  0  0  0  0  0  0  0
   -7.4122    4.7948  -15.5135 C   0  0  0  0  0  0  0  0  0  0  0  0
   -8.7229    4.3415  -15.7369 C   0  0  0  0  0  0  0  0  0  0  0  0
   -9.1969    4.1007  -17.0313 C   0  0  0  0  0  0  0  0  0  0  0  0
   -8.3849    4.2843  -18.1492 C   0  0  0  0  0  0  0  0  0  0  0  0
   -7.1008    4.7687  -17.9081 C   0  0  0  0  0  0  0  0  0  0  0  0
   -6.0950    5.1224  -18.7696 N   0  0  0  0  0  0  0  0  0  0  0  0
   -5.0353    5.5533  -18.0227 C   0  0  0  0  0  0  0  0  0  0  0  0
   -3.6868    6.0871  -18.5662 C   0  0  0  0  0  0  0  0  0  0  0  0
   -2.5774    5.1036  -18.8231 C   0  0  0  0  0  0  0  0  0  0  0  0
   -3.2468    5.8009  -19.9744 C   0  0  0  0  0  0  0  0  0  0  0  0
   -5.3015    5.5073  -16.7389 N   0  0  0  0  0  0  0  0  0  0  0  0
   -6.5912    5.0308  -16.6357 C   0  0  0  0  0  0  0  0  0  0  0  0
   -7.5539    4.3517  -10.7565 C   0  0  0  0  0  0  0  0  0  0  0  0
   -7.4752    5.7438  -10.6971 C   0  0  0  0  0  0  0  0  0  0  0  0
   -7.9356    6.4131   -9.5789 C   0  0  0  0  0  0  0  0  0  0  0  0
   -8.4597    5.7003   -8.5038 C   0  0  0  0  0  0  0  0  0  0  0  0
   -8.6065    4.3142   -8.5307 C   0  0  0  0  0  0  0  0  0  0  0  0
   -9.1348    3.6113   -7.4168 N   0  0  0  0  0  0  0  0  0  0  0  0
   -9.3945    2.1906   -7.4298 C   0  0  0  0  0  0  0  0  0  0  0  0
  -10.2211    1.9488   -6.1852 C   0  0  0  0  0  0  0  0  0  0  0  0
   -9.7969    3.0411   -5.2344 C   0  0  0  0  0  0  0  0  0  0  0  0
   -9.4155    4.1614   -6.1548 C   0  0  0  0  0  0  0  0  0  0  0  0
   -9.3450    5.3203   -5.7664 O   0  0  0  0  0  0  0  0  0  0  0  0
   -8.1793    3.6587   -9.6874 C   0  0  0  0  0  0  0  0  0  0  0  0
  2  1  1  1
  2  3  1  0
  3  4  1  0
  4  5  2  0
  4  6  1  0
  6  7  2  0
  7  8  1  0
  8  9  2  0
  9 10  1  0
 10 11  1  0
 11 12  1  0
 12 13  1  0
 13 14  1  0
 14 15  1  0
 12 16  2  0
 16 17  1  0
  2 18  1  0
 18 19  2  0
 19 20  1  0
 20 21  2  0
 21 22  1  0
 22 23  1  0
 23 24  1  0
 24 25  1  0
 25 26  1  0
 26 27  1  0
 27 28  2  0
 22 29  2  0
 17  6  1  0
 29 18  1  0
 17 10  2  0
 27 23  1  0
 15 13  1  0
M  END
>  <name>  (1118) 
P139587

>  <alias>  (1118) 
None

>  <smina_score_min>  (1118) 
-8.486

>  <exports>  (1118) 
['/opt/xchem-fragalysis-2/maxwin/BulkDock/OUTPUTS/openbind_xx01zvns2b_c2_elabs_1LOUTNY.sdf', '/opt/xchem-fragalysis-2/maxwin/BulkDock/OUTPUTS/openbind_xx01zvns2b_c2_elabs_1LSYIIV.sdf']

>  <tags>  (1118) 
syndirella_placed,openbind_xx01zvns2b_c2_elabs,openbind_xx01zvns2b_c2_elabs_scored_6.2plus,syndirella_product,openbind_xx01zvns2b_c2_elabs_scored,openbind_xx01zvns2b_c2_elabs_scored_top80percent,BulkDock Fragalysis export

>  <subsites>  (1118) 
1 - Z4590/B/203/1

>  <smiles>  (1118) 
C[C@@H](NC(=O)c1cccc2[nH]c(C3CC3)nc12)c1cccc(N2CCCC2=O)c1

>  <HIPPO Pose ID>  (1118) 
139587

>  <energy_score>  (1118) 
-5.763771

>  <inchikey>  (1118) 
MVIKJHMLRGAWPS-CQSZACIVSA-N

>  <gnina_score_min>  (1118) 
6.238

>  <gnina_score>  (1118) 
6.253

>  <ref_mols>  (1118) 
Z3094a

>  <HIPPO Compound ID>  (1118) 
197920

>  <distance_score>  (1118) 
1.27938

>  <rmsd(smina/fragmenstein)>  (1118) 
0.721

>  <ref_pdb>  (1118) 
Z3094a

>  <inspiration_score>  (1118) 
None

$$$$
P139589
     RDKit          3D

 29 33  0  0  0  0  0  0  0  0999 V2000
   -8.4010    3.4978   -6.9817 C   0  0  0  0  0  0  0  0  0  0  0  0
   -8.8075    3.1159   -8.3441 C   0  0  0  0  0  0  0  0  0  0  0  0
   -9.5371    2.0282   -8.6133 C   0  0  0  0  0  0  0  0  0  0  0  0
   -9.6880    1.9351   -9.9544 N   0  0  0  0  0  0  0  0  0  0  0  0
   -8.9665    2.9363  -10.6014 C   0  0  0  0  0  0  0  0  0  0  0  0
   -8.8755    3.0299  -11.8123 O   0  0  0  0  0  0  0  0  0  0  0  0
   -8.4399    3.7441   -9.5391 N   0  0  0  0  0  0  0  0  0  0  0  0
   -7.7936    4.9856   -9.7888 C   0  0  0  0  0  0  0  0  0  0  0  0
   -7.7462    6.0041   -8.8314 C   0  0  0  0  0  0  0  0  0  0  0  0
   -7.1794    7.2469   -9.1264 C   0  0  0  0  0  0  0  0  0  0  0  0
   -6.6574    7.4947  -10.3932 C   0  0  0  0  0  0  0  0  0  0  0  0
   -6.6888    6.5043  -11.3836 C   0  0  0  0  0  0  0  0  0  0  0  0
   -6.0774    6.8085  -12.7305 C   0  0  0  0  0  0  0  0  0  0  0  0
   -6.4776    6.0039  -13.8544 N   0  0  0  0  0  0  0  0  0  0  0  0
   -7.8795    5.6528  -14.3847 C   0  0  0  0  0  0  0  0  0  0  0  0
   -8.9357    5.8959  -13.9506 O   0  0  0  0  0  0  0  0  0  0  0  0
   -7.8226    4.9653  -15.7166 C   0  0  0  0  0  0  0  0  0  0  0  0
   -8.9625    4.2739  -16.1616 C   0  0  0  0  0  0  0  0  0  0  0  0
   -9.1105    3.8512  -17.4830 C   0  0  0  0  0  0  0  0  0  0  0  0
   -8.0992    4.0554  -18.4119 C   0  0  0  0  0  0  0  0  0  0  0  0
   -6.9401    4.6684  -17.9416 C   0  0  0  0  0  0  0  0  0  0  0  0
   -5.7790    4.9944  -18.5840 N   0  0  0  0  0  0  0  0  0  0  0  0
   -4.9441    5.5869  -17.6803 C   0  0  0  0  0  0  0  0  0  0  0  0
   -3.5003    6.0732  -17.9751 C   0  0  0  0  0  0  0  0  0  0  0  0
   -2.5333    5.1385  -18.6507 C   0  0  0  0  0  0  0  0  0  0  0  0
   -3.0546    6.3414  -19.3881 C   0  0  0  0  0  0  0  0  0  0  0  0
   -5.5149    5.7059  -16.5014 N   0  0  0  0  0  0  0  0  0  0  0  0
   -6.7636    5.1190  -16.6328 C   0  0  0  0  0  0  0  0  0  0  0  0
   -7.2316    5.2571  -11.0498 C   0  0  0  0  0  0  0  0  0  0  0  0
  1  2  1  0
  2  3  2  0
  3  4  1  0
  4  5  1  0
  5  6  2  0
  5  7  1  0
  7  8  1  0
  8  9  2  0
  9 10  1  0
 10 11  2  0
 11 12  1  0
 12 13  1  0
 13 14  1  0
 14 15  1  0
 15 16  2  0
 15 17  1  0
 17 18  2  0
 18 19  1  0
 19 20  2  0
 20 21  1  0
 21 22  1  0
 22 23  1  0
 23 24  1  0
 24 25  1  0
 25 26  1  0
 23 27  2  0
 27 28  1  0
 12 29  2  0
  7  2  1  0
 29  8  1  0
 28 17  1  0
 28 21  2  0
 26 24  1  0
M  END
>  <name>  (1119) 
P139589

>  <alias>  (1119) 
None

>  <smina_score_min>  (1119) 
-8.87

>  <exports>  (1119) 
['/opt/xchem-fragalysis-2/maxwin/BulkDock/OUTPUTS/openbind_xx01zvns2b_c2_elabs_1LOUTNY.sdf', '/opt/xchem-fragalysis-2/maxwin/BulkDock/OUTPUTS/openbind_xx01zvns2b_c2_elabs_1LSYIIV.sdf']

>  <tags>  (1119) 
syndirella_placed,openbind_xx01zvns2b_c2_elabs,openbind_xx01zvns2b_c2_elabs_scored_6.2plus,syndirella_product,openbind_xx01zvns2b_c2_elabs_scored,openbind_xx01zvns2b_c2_elabs_scored_top80percent,BulkDock Fragalysis export

>  <subsites>  (1119) 
1 - Z4590/B/203/1

>  <smiles>  (1119) 
Cc1c[nH]c(=O)n1-c1cccc(CNC(=O)c2cccc3[nH]c(C4CC4)nc23)c1

>  <HIPPO Pose ID>  (1119) 
139589

>  <energy_score>  (1119) 
-33.921685

>  <inchikey>  (1119) 
VTEIRHVXNHSHHM-UHFFFAOYSA-N

>  <gnina_score_min>  (1119) 
6.295

>  <gnina_score>  (1119) 
6.192

>  <ref_mols>  (1119) 
Z3094a

>  <HIPPO Compound ID>  (1119) 
197925

>  <distance_score>  (1119) 
1.326321

>  <rmsd(smina/fragmenstein)>  (1119) 
0.866

>  <ref_pdb>  (1119) 
Z3094a

>  <inspiration_score>  (1119) 
None

$$$$
P139592
     RDKit          3D

 29 33  0  0  0  0  0  0  0  0999 V2000
   -9.3233    3.9843   -3.6293 C   0  0  0  0  0  0  0  0  0  0  0  0
  -10.2838    3.1352   -4.4518 C   0  0  0  0  0  0  0  0  0  0  0  0
  -10.1709    3.3613   -5.9431 C   0  0  0  0  0  0  0  0  0  0  0  0
   -8.9002    2.7376   -6.4970 C   0  0  0  0  0  0  0  0  0  0  0  0
   -8.6069    3.2563   -7.8060 N   0  0  0  0  0  0  0  0  0  0  0  0
   -8.8276    2.4973   -9.0216 C   0  0  0  0  0  0  0  0  0  0  0  0
   -8.3615    3.4623  -10.0617 C   0  0  0  0  0  0  0  0  0  0  0  0
   -8.3039    3.3276  -11.4350 C   0  0  0  0  0  0  0  0  0  0  0  0
   -7.8048    4.4015  -12.1850 C   0  0  0  0  0  0  0  0  0  0  0  0
   -7.7515    4.2757  -13.5668 N   0  0  0  0  0  0  0  0  0  0  0  0
   -7.2572    5.2685  -14.6495 C   0  0  0  0  0  0  0  0  0  0  0  0
   -6.7476    6.3140  -14.5416 O   0  0  0  0  0  0  0  0  0  0  0  0
   -7.6123    4.7742  -15.9995 C   0  0  0  0  0  0  0  0  0  0  0  0
   -8.9135    4.2906  -16.2355 C   0  0  0  0  0  0  0  0  0  0  0  0
   -9.3470    3.9644  -17.5179 C   0  0  0  0  0  0  0  0  0  0  0  0
   -8.4930    4.0875  -18.6054 C   0  0  0  0  0  0  0  0  0  0  0  0
   -7.2102    4.5698  -18.3506 C   0  0  0  0  0  0  0  0  0  0  0  0
   -6.1758    4.8497  -19.1992 N   0  0  0  0  0  0  0  0  0  0  0  0
   -5.1049    5.2330  -18.4447 C   0  0  0  0  0  0  0  0  0  0  0  0
   -3.6882    5.4743  -19.0284 C   0  0  0  0  0  0  0  0  0  0  0  0
   -2.9864    6.7677  -18.7383 C   0  0  0  0  0  0  0  0  0  0  0  0
   -2.5053    5.4910  -18.1012 C   0  0  0  0  0  0  0  0  0  0  0  0
   -5.4242    5.3372  -17.1734 N   0  0  0  0  0  0  0  0  0  0  0  0
   -6.7347    4.9117  -17.0869 C   0  0  0  0  0  0  0  0  0  0  0  0
   -7.3906    5.5916  -11.5585 C   0  0  0  0  0  0  0  0  0  0  0  0
   -7.4520    5.7248  -10.1738 C   0  0  0  0  0  0  0  0  0  0  0  0
   -7.9308    4.6460   -9.4623 C   0  0  0  0  0  0  0  0  0  0  0  0
   -8.0730    4.5093   -8.0169 C   0  0  0  0  0  0  0  0  0  0  0  0
   -7.7743    5.3653   -7.2048 O   0  0  0  0  0  0  0  0  0  0  0  0
  1  2  1  0
  2  3  1  0
  3  4  1  0
  4  5  1  0
  5  6  1  0
  6  7  1  0
  7  8  2  0
  8  9  1  0
  9 10  1  0
 10 11  1  0
 11 12  2  0
 11 13  1  0
 13 14  2  0
 14 15  1  0
 15 16  2  0
 16 17  1  0
 17 18  1  0
 18 19  1  0
 19 20  1  0
 20 21  1  0
 21 22  1  0
 19 23  2  0
 23 24  1  0
  9 25  2  0
 25 26  1  0
 26 27  2  0
 27 28  1  0
 28 29  2  0
 28  5  1  0
 27  7  1  0
 24 13  1  0
 24 17  2  0
 22 20  1  0
M  END
>  <name>  (1120) 
P139592

>  <alias>  (1120) 
None

>  <smina_score_min>  (1120) 
-9.492

>  <exports>  (1120) 
['/opt/xchem-fragalysis-2/maxwin/BulkDock/OUTPUTS/openbind_xx01zvns2b_c2_elabs_1LOUTNY.sdf', '/opt/xchem-fragalysis-2/maxwin/BulkDock/OUTPUTS/openbind_xx01zvns2b_c2_elabs_1LSYIIV.sdf']

>  <tags>  (1120) 
syndirella_placed,openbind_xx01zvns2b_c2_elabs,openbind_xx01zvns2b_c2_elabs_scored_6.2plus,syndirella_product,openbind_xx01zvns2b_c2_elabs_scored,openbind_xx01zvns2b_c2_elabs_scored_top80percent,BulkDock Fragalysis export

>  <subsites>  (1120) 
1 - Z4590/B/203/1

>  <smiles>  (1120) 
CCCCN1Cc2cc(NC(=O)c3cccc4[nH]c(C5CC5)nc34)ccc2C1=O

>  <HIPPO Pose ID>  (1120) 
139592

>  <energy_score>  (1120) 
-28.653395

>  <inchikey>  (1120) 
YFEFKJUZVLDQJM-UHFFFAOYSA-N

>  <gnina_score_min>  (1120) 
6.347

>  <gnina_score>  (1120) 
6.182

>  <ref_mols>  (1120) 
Z3094a

>  <HIPPO Compound ID>  (1120) 
197929

>  <distance_score>  (1120) 
0.696655

>  <rmsd(smina/fragmenstein)>  (1120) 
0.692

>  <ref_pdb>  (1120) 
Z3094a

>  <inspiration_score>  (1120) 
None

$$$$
P139598
     RDKit          3D

 29 32  0  0  0  0  0  0  0  0999 V2000
   -3.9141    2.7649   -9.5732 C   0  0  0  0  0  0  0  0  0  0  0  0
   -5.3012    2.4880   -9.3579 N   0  0  0  0  0  0  0  0  0  0  0  0
   -6.1038    1.1552   -9.5037 C   0  0  0  0  0  0  0  0  0  0  0  0
   -5.7645    0.1047   -9.8958 O   0  0  0  0  0  0  0  0  0  0  0  0
   -7.5523    1.5012   -8.9632 C   0  0  0  0  0  0  0  0  0  0  0  0
   -7.8472    2.7541   -9.5533 N   0  0  0  0  0  0  0  0  0  0  0  0
   -8.5196    3.9948   -8.9667 C   0  0  0  0  0  0  0  0  0  0  0  0
   -9.0096    4.1655   -7.9290 O   0  0  0  0  0  0  0  0  0  0  0  0
   -8.3610    5.0777   -9.9530 C   0  0  0  0  0  0  0  0  0  0  0  0
   -7.8970    6.3084   -9.5113 C   0  0  0  0  0  0  0  0  0  0  0  0
   -7.4348    7.2125  -10.4566 C   0  0  0  0  0  0  0  0  0  0  0  0
   -7.3989    6.8566  -11.8099 C   0  0  0  0  0  0  0  0  0  0  0  0
   -7.8897    5.6239  -12.2307 C   0  0  0  0  0  0  0  0  0  0  0  0
   -7.7781    5.1831  -13.5346 N   0  0  0  0  0  0  0  0  0  0  0  0
   -7.1021    5.8299  -14.7519 C   0  0  0  0  0  0  0  0  0  0  0  0
   -6.4652    6.8007  -14.8339 O   0  0  0  0  0  0  0  0  0  0  0  0
   -7.4404    5.0785  -15.9979 C   0  0  0  0  0  0  0  0  0  0  0  0
   -8.7031    4.4835  -16.2073 C   0  0  0  0  0  0  0  0  0  0  0  0
   -9.0715    3.9883  -17.4608 C   0  0  0  0  0  0  0  0  0  0  0  0
   -8.2034    4.0650  -18.5475 C   0  0  0  0  0  0  0  0  0  0  0  0
   -6.9587    4.6489  -18.3163 C   0  0  0  0  0  0  0  0  0  0  0  0
   -5.9197    4.9440  -19.1601 N   0  0  0  0  0  0  0  0  0  0  0  0
   -4.9261    5.5192  -18.4188 C   0  0  0  0  0  0  0  0  0  0  0  0
   -3.5612    6.0267  -18.9350 C   0  0  0  0  0  0  0  0  0  0  0  0
   -3.0017    5.5606  -20.2466 C   0  0  0  0  0  0  0  0  0  0  0  0
   -2.4095    5.0588  -18.9586 C   0  0  0  0  0  0  0  0  0  0  0  0
   -5.2748    5.6454  -17.1631 N   0  0  0  0  0  0  0  0  0  0  0  0
   -6.5468    5.1320  -17.0787 C   0  0  0  0  0  0  0  0  0  0  0  0
   -8.4464    4.7647  -11.3142 C   0  0  0  0  0  0  0  0  0  0  0  0
  1  2  1  0
  2  3  1  0
  3  4  2  0
  3  5  1  0
  5  6  1  0
  6  7  1  0
  7  8  2  0
  7  9  1  0
  9 10  2  0
 10 11  1  0
 11 12  2  0
 12 13  1  0
 13 14  1  0
 14 15  1  0
 15 16  2  0
 15 17  1  0
 17 18  2  0
 18 19  1  0
 19 20  2  0
 20 21  1  0
 21 22  1  0
 22 23  1  0
 23 24  1  0
 24 25  1  0
 25 26  1  0
 23 27  2  0
 27 28  1  0
 13 29  2  0
 29  9  1  0
 28 17  1  0
 28 21  2  0
 26 24  1  0
M  END
>  <name>  (1121) 
P139598

>  <alias>  (1121) 
None

>  <smina_score_min>  (1121) 
-7.972

>  <exports>  (1121) 
['/opt/xchem-fragalysis-2/maxwin/BulkDock/OUTPUTS/openbind_xx01zvns2b_c2_elabs_1LOUTNY.sdf', '/opt/xchem-fragalysis-2/maxwin/BulkDock/OUTPUTS/openbind_xx01zvns2b_c2_elabs_1LSYIIV.sdf']

>  <tags>  (1121) 
syndirella_placed,openbind_xx01zvns2b_c2_elabs,openbind_xx01zvns2b_c2_elabs_scored_6.2plus,syndirella_product,openbind_xx01zvns2b_c2_elabs_scored,openbind_xx01zvns2b_c2_elabs_scored_top80percent,BulkDock Fragalysis export

>  <subsites>  (1121) 
1 - Z4590/B/203/1

>  <smiles>  (1121) 
CNC(=O)CNC(=O)c1cccc(NC(=O)c2cccc3[nH]c(C4CC4)nc23)c1

>  <HIPPO Pose ID>  (1121) 
139598

>  <energy_score>  (1121) 
-14.59713

>  <inchikey>  (1121) 
ZWWKMEDVYSXVIS-UHFFFAOYSA-N

>  <gnina_score_min>  (1121) 
6.386

>  <gnina_score>  (1121) 
5.947

>  <ref_mols>  (1121) 
Z3094a

>  <HIPPO Compound ID>  (1121) 
197935

>  <distance_score>  (1121) 
1.210834

>  <rmsd(smina/fragmenstein)>  (1121) 
1.295

>  <ref_pdb>  (1121) 
Z3094a

>  <inspiration_score>  (1121) 
None

$$$$
P139603
     RDKit          3D

 29 34  0  0  0  0  0  0  0  0999 V2000
   -7.1630    6.7355  -14.4652 O   0  0  0  0  0  0  0  0  0  0  0  0
   -7.4200    5.5978  -14.4585 C   0  0  0  0  0  0  0  0  0  0  0  0
   -7.7375    4.6508  -13.2815 N   0  0  0  0  0  0  0  0  0  0  0  0
   -7.8928    4.9163  -11.9251 C   0  0  0  0  0  0  0  0  0  0  0  0
   -7.9163    6.2320  -11.4511 C   0  0  0  0  0  0  0  0  0  0  0  0
   -8.0762    6.5145  -10.0820 C   0  0  0  0  0  0  0  0  0  0  0  0
   -8.1879    5.4857   -9.1537 C   0  0  0  0  0  0  0  0  0  0  0  0
   -8.1239    4.1913   -9.6278 C   0  0  0  0  0  0  0  0  0  0  0  0
   -7.9977    3.9043  -10.9960 C   0  0  0  0  0  0  0  0  0  0  0  0
   -7.8001    2.4315  -11.1458 C   0  0  0  0  0  0  0  0  0  0  0  0
   -7.2966    2.0374   -9.8052 N   0  0  0  0  0  0  0  0  0  0  0  0
   -5.9248    2.0006   -9.7420 C   0  0  0  0  0  0  0  0  0  0  0  0
   -5.1544    2.8991   -9.1579 N   0  0  0  0  0  0  0  0  0  0  0  0
   -3.8218    2.6290   -9.3806 C   0  0  0  0  0  0  0  0  0  0  0  0
   -3.5611    1.4876  -10.0993 C   0  0  0  0  0  0  0  0  0  0  0  0
   -5.0331    0.7282  -10.5147 S   0  0  0  0  0  0  0  0  0  0  0  0
   -7.9696    2.9285   -8.8347 C   0  0  0  0  0  0  0  0  0  0  0  0
   -7.5755    4.9174  -15.7659 C   0  0  0  0  0  0  0  0  0  0  0  0
   -8.8005    4.3047  -16.0850 C   0  0  0  0  0  0  0  0  0  0  0  0
   -9.0907    3.9100  -17.3926 C   0  0  0  0  0  0  0  0  0  0  0  0
   -8.1656    4.0848  -18.4191 C   0  0  0  0  0  0  0  0  0  0  0  0
   -6.9492    4.6724  -18.0733 C   0  0  0  0  0  0  0  0  0  0  0  0
   -5.8631    5.0173  -18.8323 N   0  0  0  0  0  0  0  0  0  0  0  0
   -4.9291    5.5748  -18.0052 C   0  0  0  0  0  0  0  0  0  0  0  0
   -3.5277    6.0898  -18.4180 C   0  0  0  0  0  0  0  0  0  0  0  0
   -3.0646    6.0408  -19.8472 C   0  0  0  0  0  0  0  0  0  0  0  0
   -2.4868    5.0876  -18.8373 C   0  0  0  0  0  0  0  0  0  0  0  0
   -5.3652    5.6501  -16.7696 N   0  0  0  0  0  0  0  0  0  0  0  0
   -6.6232    5.0893  -16.7839 C   0  0  0  0  0  0  0  0  0  0  0  0
  1  2  2  0
  2  3  1  0
  3  4  1  0
  4  5  2  0
  5  6  1  0
  6  7  2  0
  7  8  1  0
  8  9  2  0
  9 10  1  0
 10 11  1  0
 11 12  1  0
 12 13  2  0
 13 14  1  0
 14 15  2  0
 15 16  1  0
 11 17  1  0
  2 18  1  0
 18 19  2  0
 19 20  1  0
 20 21  2  0
 21 22  1  0
 22 23  1  0
 23 24  1  0
 24 25  1  0
 25 26  1  0
 26 27  1  0
 24 28  2  0
 28 29  1  0
  9  4  1  0
 16 12  1  0
 29 18  1  0
 17  8  1  0
 29 22  2  0
 27 25  1  0
M  END
>  <name>  (1122) 
P139603

>  <alias>  (1122) 
None

>  <smina_score_min>  (1122) 
-8.826

>  <exports>  (1122) 
['/opt/xchem-fragalysis-2/maxwin/BulkDock/OUTPUTS/openbind_xx01zvns2b_c2_elabs_1LOUTNY.sdf', '/opt/xchem-fragalysis-2/maxwin/BulkDock/OUTPUTS/openbind_xx01zvns2b_c2_elabs_1LSYIIV.sdf']

>  <tags>  (1122) 
syndirella_placed,openbind_xx01zvns2b_c2_elabs,openbind_xx01zvns2b_c2_elabs_scored_6.2plus,syndirella_product,openbind_xx01zvns2b_c2_elabs_scored,openbind_xx01zvns2b_c2_elabs_scored_top80percent,BulkDock Fragalysis export

>  <subsites>  (1122) 
1 - Z4590/B/203/1

>  <smiles>  (1122) 
O=C(Nc1cccc2c1CN(c1nccs1)C2)c1cccc2[nH]c(C3CC3)nc12

>  <HIPPO Pose ID>  (1122) 
139603

>  <energy_score>  (1122) 
-87.602502

>  <inchikey>  (1122) 
AMUCTTURLKFFAS-UHFFFAOYSA-N

>  <gnina_score_min>  (1122) 
6.538

>  <gnina_score>  (1122) 
6.532

>  <ref_mols>  (1122) 
Z3094a

>  <HIPPO Compound ID>  (1122) 
197942

>  <distance_score>  (1122) 
0.86383

>  <rmsd(smina/fragmenstein)>  (1122) 
0.653

>  <ref_pdb>  (1122) 
Z3094a

>  <inspiration_score>  (1122) 
None

$$$$
P139605
     RDKit          3D

 29 33  0  0  0  0  0  0  0  0999 V2000
   -9.1413    5.5870   -4.5732 C   0  0  0  0  0  0  0  0  0  0  0  0
   -9.2035    4.5084   -5.5841 C   0  0  0  0  0  0  0  0  0  0  0  0
   -9.5588    3.2460   -5.2193 N   0  0  0  0  0  0  0  0  0  0  0  0
   -9.4369    2.5205   -6.3062 C   0  0  0  0  0  0  0  0  0  0  0  0
   -9.0448    3.2676   -7.3954 N   0  0  0  0  0  0  0  0  0  0  0  0
   -8.8960    2.6494   -8.7267 C   0  0  0  0  0  0  0  0  0  0  0  0
   -8.0114    3.3765   -9.7124 C   0  0  0  0  0  0  0  0  0  0  0  0
   -6.8249    3.9818   -9.2817 C   0  0  0  0  0  0  0  0  0  0  0  0
   -6.1175    4.8320  -10.1210 C   0  0  0  0  0  0  0  0  0  0  0  0
   -6.5120    4.9825  -11.4432 C   0  0  0  0  0  0  0  0  0  0  0  0
   -7.5710    4.2317  -11.9489 C   0  0  0  0  0  0  0  0  0  0  0  0
   -7.7939    4.2406  -13.3234 N   0  0  0  0  0  0  0  0  0  0  0  0
   -7.2638    5.2018  -14.4264 C   0  0  0  0  0  0  0  0  0  0  0  0
   -6.6227    6.1766  -14.3380 O   0  0  0  0  0  0  0  0  0  0  0  0
   -7.6394    4.7600  -15.7980 C   0  0  0  0  0  0  0  0  0  0  0  0
   -8.9134    4.2525  -16.0940 C   0  0  0  0  0  0  0  0  0  0  0  0
   -9.2961    3.9629  -17.4063 C   0  0  0  0  0  0  0  0  0  0  0  0
   -8.4186    4.1441  -18.4709 C   0  0  0  0  0  0  0  0  0  0  0  0
   -7.1639    4.6648  -18.1634 C   0  0  0  0  0  0  0  0  0  0  0  0
   -6.1169    5.0335  -18.9677 N   0  0  0  0  0  0  0  0  0  0  0  0
   -5.1173    5.5077  -18.1663 C   0  0  0  0  0  0  0  0  0  0  0  0
   -3.7520    6.0712  -18.6322 C   0  0  0  0  0  0  0  0  0  0  0  0
   -3.2180    5.7830  -20.0067 C   0  0  0  0  0  0  0  0  0  0  0  0
   -2.6032    5.1154  -18.8084 C   0  0  0  0  0  0  0  0  0  0  0  0
   -5.4649    5.4825  -16.9022 N   0  0  0  0  0  0  0  0  0  0  0  0
   -6.7461    4.9725  -16.8701 C   0  0  0  0  0  0  0  0  0  0  0  0
   -8.3335    3.4388  -11.0840 C   0  0  0  0  0  0  0  0  0  0  0  0
   -8.9436    4.5784   -6.9435 C   0  0  0  0  0  0  0  0  0  0  0  0
   -8.6036    5.7996   -7.7193 C   0  0  0  0  0  0  0  0  0  0  0  0
  1  2  1  0
  2  3  1  0
  3  4  2  0
  4  5  1  0
  5  6  1  0
  6  7  1  0
  7  8  2  0
  8  9  1  0
  9 10  2  0
 10 11  1  0
 11 12  1  0
 12 13  1  0
 13 14  2  0
 13 15  1  0
 15 16  2  0
 16 17  1  0
 17 18  2  0
 18 19  1  0
 19 20  1  0
 20 21  1  0
 21 22  1  0
 22 23  1  0
 23 24  1  0
 21 25  2  0
 25 26  1  0
 11 27  2  0
  5 28  1  0
 28 29  1  0
 28  2  2  0
 27  7  1  0
 26 15  1  0
 26 19  2  0
 24 22  1  0
M  END
>  <name>  (1123) 
P139605

>  <alias>  (1123) 
None

>  <smina_score_min>  (1123) 
-8.786

>  <exports>  (1123) 
['/opt/xchem-fragalysis-2/maxwin/BulkDock/OUTPUTS/openbind_xx01zvns2b_c2_elabs_1LOUTNY.sdf', '/opt/xchem-fragalysis-2/maxwin/BulkDock/OUTPUTS/openbind_xx01zvns2b_c2_elabs_1LSYIIV.sdf']

>  <tags>  (1123) 
syndirella_placed,openbind_xx01zvns2b_c2_elabs,openbind_xx01zvns2b_c2_elabs_scored_6.2plus,syndirella_product,openbind_xx01zvns2b_c2_elabs_scored,openbind_xx01zvns2b_c2_elabs_scored_top80percent,BulkDock Fragalysis export

>  <subsites>  (1123) 
1 - Z4590/B/203/1

>  <smiles>  (1123) 
Cc1ncn(Cc2cccc(NC(=O)c3cccc4[nH]c(C5CC5)nc34)c2)c1C

>  <HIPPO Pose ID>  (1123) 
139605

>  <energy_score>  (1123) 
-8.40282

>  <inchikey>  (1123) 
NJGNABABTRMGHR-UHFFFAOYSA-N

>  <gnina_score_min>  (1123) 
6.234

>  <gnina_score>  (1123) 
6.15

>  <ref_mols>  (1123) 
Z3094a

>  <HIPPO Compound ID>  (1123) 
197947

>  <distance_score>  (1123) 
0.884992

>  <rmsd(smina/fragmenstein)>  (1123) 
0.605

>  <ref_pdb>  (1123) 
Z3094a

>  <inspiration_score>  (1123) 
None

$$$$
P139607
     RDKit          3D

 29 33  0  0  0  0  0  0  0  0999 V2000
   -4.1202    2.3078  -10.1141 C   0  0  0  0  0  0  0  0  0  0  0  0
   -5.5118    2.3761   -9.6154 C   0  0  0  0  0  0  0  0  0  0  0  0
   -6.5061    1.3735   -9.6681 C   0  0  0  0  0  0  0  0  0  0  0  0
   -7.6285    1.9169   -9.0773 C   0  0  0  0  0  0  0  0  0  0  0  0
   -9.0014    1.4546   -8.7649 C   0  0  0  0  0  0  0  0  0  0  0  0
   -7.2681    3.1898   -8.7647 N   0  0  0  0  0  0  0  0  0  0  0  0
   -8.2192    4.2492   -8.5047 C   0  0  0  0  0  0  0  0  0  0  0  0
   -8.2253    5.1772   -9.6866 C   0  0  0  0  0  0  0  0  0  0  0  0
   -8.0706    6.5416   -9.4393 C   0  0  0  0  0  0  0  0  0  0  0  0
   -7.8327    7.4045  -10.4938 C   0  0  0  0  0  0  0  0  0  0  0  0
   -7.7346    6.9049  -11.7892 C   0  0  0  0  0  0  0  0  0  0  0  0
   -7.9347    5.5503  -12.0529 C   0  0  0  0  0  0  0  0  0  0  0  0
   -7.7968    5.0769  -13.3492 N   0  0  0  0  0  0  0  0  0  0  0  0
   -7.2274    5.7595  -14.6097 C   0  0  0  0  0  0  0  0  0  0  0  0
   -6.7142    6.7988  -14.7399 O   0  0  0  0  0  0  0  0  0  0  0  0
   -7.4828    4.9706  -15.8449 C   0  0  0  0  0  0  0  0  0  0  0  0
   -8.7389    4.3791  -16.0768 C   0  0  0  0  0  0  0  0  0  0  0  0
   -9.1057    3.9427  -17.3533 C   0  0  0  0  0  0  0  0  0  0  0  0
   -8.2366    4.0596  -18.4365 C   0  0  0  0  0  0  0  0  0  0  0  0
   -6.9908    4.6286  -18.1789 C   0  0  0  0  0  0  0  0  0  0  0  0
   -5.9514    4.9535  -19.0111 N   0  0  0  0  0  0  0  0  0  0  0  0
   -4.9629    5.5137  -18.2522 C   0  0  0  0  0  0  0  0  0  0  0  0
   -3.6004    6.0459  -18.7547 C   0  0  0  0  0  0  0  0  0  0  0  0
   -2.4678    5.0682  -18.9128 C   0  0  0  0  0  0  0  0  0  0  0  0
   -3.0861    5.7090  -20.1245 C   0  0  0  0  0  0  0  0  0  0  0  0
   -5.3158    5.6009  -16.9934 N   0  0  0  0  0  0  0  0  0  0  0  0
   -6.5834    5.0687  -16.9222 C   0  0  0  0  0  0  0  0  0  0  0  0
   -8.2401    4.6894  -11.0126 C   0  0  0  0  0  0  0  0  0  0  0  0
   -5.9652    3.4806   -9.0139 N   0  0  0  0  0  0  0  0  0  0  0  0
  1  2  1  0
  2  3  1  0
  3  4  2  0
  4  5  1  0
  4  6  1  0
  6  7  1  0
  7  8  1  0
  8  9  2  0
  9 10  1  0
 10 11  2  0
 11 12  1  0
 12 13  1  0
 13 14  1  0
 14 15  2  0
 14 16  1  0
 16 17  2  0
 17 18  1  0
 18 19  2  0
 19 20  1  0
 20 21  1  0
 21 22  1  0
 22 23  1  0
 23 24  1  0
 24 25  1  0
 22 26  2  0
 26 27  1  0
 12 28  2  0
  6 29  1  0
 29  2  2  0
 28  8  1  0
 27 16  1  0
 27 20  2  0
 25 23  1  0
M  END
>  <name>  (1124) 
P139607

>  <alias>  (1124) 
None

>  <smina_score_min>  (1124) 
-7.832

>  <exports>  (1124) 
['/opt/xchem-fragalysis-2/maxwin/BulkDock/OUTPUTS/openbind_xx01zvns2b_c2_elabs_1LOUTNY.sdf', '/opt/xchem-fragalysis-2/maxwin/BulkDock/OUTPUTS/openbind_xx01zvns2b_c2_elabs_1LSYIIV.sdf']

>  <tags>  (1124) 
syndirella_placed,openbind_xx01zvns2b_c2_elabs,openbind_xx01zvns2b_c2_elabs_scored_6.2plus,syndirella_product,openbind_xx01zvns2b_c2_elabs_scored,openbind_xx01zvns2b_c2_elabs_scored_top80percent,BulkDock Fragalysis export

>  <subsites>  (1124) 
1 - Z4590/B/203/1

>  <smiles>  (1124) 
Cc1cc(C)n(Cc2cccc(NC(=O)c3cccc4[nH]c(C5CC5)nc34)c2)n1

>  <HIPPO Pose ID>  (1124) 
139607

>  <energy_score>  (1124) 
-8.123051

>  <inchikey>  (1124) 
YFZDHYOATLMJJP-UHFFFAOYSA-N

>  <gnina_score_min>  (1124) 
6.372

>  <gnina_score>  (1124) 
6.202

>  <ref_mols>  (1124) 
Z3094a

>  <HIPPO Compound ID>  (1124) 
197950

>  <distance_score>  (1124) 
1.230446

>  <rmsd(smina/fragmenstein)>  (1124) 
0.762

>  <ref_pdb>  (1124) 
Z3094a

>  <inspiration_score>  (1124) 
None

$$$$
P139616
     RDKit          3D

 29 33  0  0  0  0  0  0  0  0999 V2000
   -6.1554    1.1729   -9.7549 O   0  0  0  0  0  0  0  0  0  0  0  0
   -6.9538    1.8055   -9.0614 C   0  0  0  0  0  0  0  0  0  0  0  0
   -6.6832    3.2583   -8.6679 C   0  0  0  0  0  0  0  0  0  0  0  0
   -7.8629    3.9286   -8.0782 N   0  0  0  0  0  0  0  0  0  0  0  0
   -8.8766    4.0848   -9.1077 C   0  0  0  0  0  0  0  0  0  0  0  0
   -8.3963    5.0013  -10.1721 C   0  0  0  0  0  0  0  0  0  0  0  0
   -8.0202    6.3049   -9.8185 C   0  0  0  0  0  0  0  0  0  0  0  0
   -7.4637    7.1370  -10.7657 C   0  0  0  0  0  0  0  0  0  0  0  0
   -7.3018    6.6663  -12.0614 C   0  0  0  0  0  0  0  0  0  0  0  0
   -7.7006    5.3726  -12.4099 C   0  0  0  0  0  0  0  0  0  0  0  0
   -7.6182    4.9510  -13.7157 N   0  0  0  0  0  0  0  0  0  0  0  0
   -7.0403    5.6466  -14.9514 C   0  0  0  0  0  0  0  0  0  0  0  0
   -6.4712    6.6563  -15.0515 O   0  0  0  0  0  0  0  0  0  0  0  0
   -7.3835    4.9007  -16.1824 C   0  0  0  0  0  0  0  0  0  0  0  0
   -8.6567    4.3223  -16.3689 C   0  0  0  0  0  0  0  0  0  0  0  0
   -9.0586    3.8754  -17.6273 C   0  0  0  0  0  0  0  0  0  0  0  0
   -8.2161    3.9924  -18.7316 C   0  0  0  0  0  0  0  0  0  0  0  0
   -6.9654    4.5730  -18.5192 C   0  0  0  0  0  0  0  0  0  0  0  0
   -5.9549    4.9205  -19.3782 N   0  0  0  0  0  0  0  0  0  0  0  0
   -4.9466    5.4733  -18.6392 C   0  0  0  0  0  0  0  0  0  0  0  0
   -3.6010    6.0173  -19.1629 C   0  0  0  0  0  0  0  0  0  0  0  0
   -2.9388    5.4196  -20.3672 C   0  0  0  0  0  0  0  0  0  0  0  0
   -2.3865    5.1426  -18.9967 C   0  0  0  0  0  0  0  0  0  0  0  0
   -5.2584    5.5376  -17.3712 N   0  0  0  0  0  0  0  0  0  0  0  0
   -6.5199    5.0052  -17.2773 C   0  0  0  0  0  0  0  0  0  0  0  0
   -8.2437    4.5250  -11.4711 C   0  0  0  0  0  0  0  0  0  0  0  0
   -8.4606    3.1485   -6.9900 C   0  0  0  0  0  0  0  0  0  0  0  0
   -8.8863    1.7537   -7.4527 C   0  0  0  0  0  0  0  0  0  0  0  0
   -8.1039    1.2307   -8.5720 N   0  0  0  0  0  0  0  0  0  0  0  0
  1  2  2  0
  2  3  1  0
  3  4  1  0
  4  5  1  0
  5  6  1  0
  6  7  2  0
  7  8  1  0
  8  9  2  0
  9 10  1  0
 10 11  1  0
 11 12  1  0
 12 13  2  0
 12 14  1  0
 14 15  2  0
 15 16  1  0
 16 17  2  0
 17 18  1  0
 18 19  1  0
 19 20  1  0
 20 21  1  0
 21 22  1  0
 22 23  1  0
 20 24  2  0
 24 25  1  0
 10 26  2  0
  4 27  1  0
 27 28  1  0
 28 29  1  0
 29  2  1  0
 26  6  1  0
 25 14  1  0
 25 18  2  0
 23 21  1  0
M  END
>  <name>  (1125) 
P139616

>  <alias>  (1125) 
None

>  <smina_score_min>  (1125) 
-7.347

>  <exports>  (1125) 
['/opt/xchem-fragalysis-2/maxwin/BulkDock/OUTPUTS/openbind_xx01zvns2b_c2_elabs_1LOUTNY.sdf', '/opt/xchem-fragalysis-2/maxwin/BulkDock/OUTPUTS/openbind_xx01zvns2b_c2_elabs_1LSYIIV.sdf']

>  <tags>  (1125) 
syndirella_placed,openbind_xx01zvns2b_c2_elabs,openbind_xx01zvns2b_c2_elabs_scored_6.2plus,syndirella_product,openbind_xx01zvns2b_c2_elabs_scored,openbind_xx01zvns2b_c2_elabs_scored_top80percent,BulkDock Fragalysis export

>  <subsites>  (1125) 
1 - Z4590/B/203/1

>  <smiles>  (1125) 
O=C1CN(Cc2cccc(NC(=O)c3cccc4[nH]c(C5CC5)nc34)c2)CCN1

>  <HIPPO Pose ID>  (1125) 
139616

>  <energy_score>  (1125) 
-40.510014

>  <inchikey>  (1125) 
SQGBSXDDYOJYGM-UHFFFAOYSA-N

>  <gnina_score_min>  (1125) 
6.216

>  <gnina_score>  (1125) 
6.251

>  <ref_mols>  (1125) 
Z3094a

>  <HIPPO Compound ID>  (1125) 
197964

>  <distance_score>  (1125) 
1.271162

>  <rmsd(smina/fragmenstein)>  (1125) 
0.957

>  <ref_pdb>  (1125) 
Z3094a

>  <inspiration_score>  (1125) 
None

$$$$
P139621
     RDKit          3D

 29 33  0  0  0  0  0  0  0  0999 V2000
   -7.3680    1.8999   -9.0860 C   0  0  0  0  0  0  0  0  0  0  0  0
   -8.4141    2.9468   -8.6910 C   0  0  1  0  0  0  0  0  0  0  0  0
   -8.3882    4.0871   -9.6975 C   0  0  0  0  0  0  0  0  0  0  0  0
   -8.2228    5.4148   -9.2728 C   0  0  0  0  0  0  0  0  0  0  0  0
   -7.9328    6.4277  -10.1790 C   0  0  0  0  0  0  0  0  0  0  0  0
   -7.8032    6.1325  -11.5295 C   0  0  0  0  0  0  0  0  0  0  0  0
   -8.0291    4.8389  -11.9941 C   0  0  0  0  0  0  0  0  0  0  0  0
   -7.8787    4.5579  -13.3501 N   0  0  0  0  0  0  0  0  0  0  0  0
   -7.4322    5.4672  -14.5225 C   0  0  0  0  0  0  0  0  0  0  0  0
   -7.0480    6.5704  -14.5207 O   0  0  0  0  0  0  0  0  0  0  0  0
   -7.6328    4.8243  -15.8433 C   0  0  0  0  0  0  0  0  0  0  0  0
   -8.8672    4.2394  -16.1694 C   0  0  0  0  0  0  0  0  0  0  0  0
   -9.1685    3.8750  -17.4831 C   0  0  0  0  0  0  0  0  0  0  0  0
   -8.2479    4.0593  -18.5115 C   0  0  0  0  0  0  0  0  0  0  0  0
   -7.0248    4.6298  -18.1636 C   0  0  0  0  0  0  0  0  0  0  0  0
   -5.9494    5.0009  -18.9264 N   0  0  0  0  0  0  0  0  0  0  0  0
   -5.0011    5.5237  -18.0927 C   0  0  0  0  0  0  0  0  0  0  0  0
   -3.6134    6.0734  -18.5070 C   0  0  0  0  0  0  0  0  0  0  0  0
   -2.5197    5.0933  -18.8344 C   0  0  0  0  0  0  0  0  0  0  0  0
   -3.1117    5.9512  -19.9183 C   0  0  0  0  0  0  0  0  0  0  0  0
   -5.4156    5.5447  -16.8478 N   0  0  0  0  0  0  0  0  0  0  0  0
   -6.6840    5.0058  -16.8665 C   0  0  0  0  0  0  0  0  0  0  0  0
   -8.3694    3.8306  -11.0905 C   0  0  0  0  0  0  0  0  0  0  0  0
   -9.6962    2.2984   -8.5380 N   0  0  0  0  0  0  0  0  0  0  0  0
   -9.8713    1.9174   -7.2197 C   0  0  0  0  0  0  0  0  0  0  0  0
  -10.6122    1.0338   -6.8300 O   0  0  0  0  0  0  0  0  0  0  0  0
   -9.0663    2.6595   -6.4348 N   0  0  0  0  0  0  0  0  0  0  0  0
   -8.1760    3.3440   -7.2015 C   0  0  0  0  0  0  0  0  0  0  0  0
   -7.3164    4.0913   -6.7448 O   0  0  0  0  0  0  0  0  0  0  0  0
  2  1  1  6
  2  3  1  0
  3  4  2  0
  4  5  1  0
  5  6  2  0
  6  7  1  0
  7  8  1  0
  8  9  1  0
  9 10  2  0
  9 11  1  0
 11 12  2  0
 12 13  1  0
 13 14  2  0
 14 15  1  0
 15 16  1  0
 16 17  1  0
 17 18  1  0
 18 19  1  0
 19 20  1  0
 17 21  2  0
 21 22  1  0
  7 23  2  0
  2 24  1  0
 24 25  1  0
 25 26  2  0
 25 27  1  0
 27 28  1  0
 28 29  2  0
 28  2  1  0
 23  3  1  0
 22 11  1  0
 22 15  2  0
 20 18  1  0
M  END
>  <name>  (1126) 
P139621

>  <alias>  (1126) 
None

>  <smina_score_min>  (1126) 
-8.855

>  <exports>  (1126) 
['/opt/xchem-fragalysis-2/maxwin/BulkDock/OUTPUTS/openbind_xx01zvns2b_c2_elabs_1LOUTNY.sdf', '/opt/xchem-fragalysis-2/maxwin/BulkDock/OUTPUTS/openbind_xx01zvns2b_c2_elabs_1LSYIIV.sdf']

>  <tags>  (1126) 
syndirella_placed,openbind_xx01zvns2b_c2_elabs,openbind_xx01zvns2b_c2_elabs_scored_6.2plus,syndirella_product,openbind_xx01zvns2b_c2_elabs_scored,openbind_xx01zvns2b_c2_elabs_scored_top80percent,BulkDock Fragalysis export

>  <subsites>  (1126) 
1 - Z4590/B/203/1

>  <smiles>  (1126) 
C[C@@]1(c2cccc(NC(=O)c3cccc4[nH]c(C5CC5)nc34)c2)NC(=O)NC1=O

>  <HIPPO Pose ID>  (1126) 
139621

>  <energy_score>  (1126) 
-44.682298

>  <inchikey>  (1126) 
KGGCZMOZFWMJIH-NRFANRHFSA-N

>  <gnina_score_min>  (1126) 
6.328

>  <gnina_score>  (1126) 
6.271

>  <ref_mols>  (1126) 
Z3094a

>  <HIPPO Compound ID>  (1126) 
197969

>  <distance_score>  (1126) 
0.708623

>  <rmsd(smina/fragmenstein)>  (1126) 
0.677

>  <ref_pdb>  (1126) 
Z3094a

>  <inspiration_score>  (1126) 
None

$$$$
P139622
     RDKit          3D

 29 32  0  0  0  0  0  0  0  0999 V2000
   -5.9086    7.3192  -11.9129 C   0  0  0  0  0  0  0  0  0  0  0  0
   -7.2718    6.9382  -12.1083 O   0  0  0  0  0  0  0  0  0  0  0  0
   -7.5757    5.8240  -11.3732 C   0  0  0  0  0  0  0  0  0  0  0  0
   -7.7341    6.0050   -9.9975 C   0  0  0  0  0  0  0  0  0  0  0  0
   -8.1851    4.9623   -9.1997 C   0  0  0  0  0  0  0  0  0  0  0  0
   -8.5002    3.7147   -9.7543 C   0  0  0  0  0  0  0  0  0  0  0  0
   -9.0575    2.6193   -8.8609 C   0  0  0  0  0  0  0  0  0  0  0  0
   -8.4545    2.6827   -7.5202 N   0  0  0  0  0  0  0  0  0  0  0  0
   -9.4538    2.9329   -6.1984 S   0  0  0  0  0  0  0  0  0  0  0  0
   -8.2734    3.3650   -4.9431 C   0  0  0  0  0  0  0  0  0  0  0  0
  -10.2189    4.1446   -6.4022 O   0  0  0  0  0  0  0  0  0  0  0  0
  -10.0990    1.6810   -5.8910 O   0  0  0  0  0  0  0  0  0  0  0  0
   -8.3663    3.5502  -11.1485 C   0  0  0  0  0  0  0  0  0  0  0  0
   -7.8936    4.5960  -11.9723 C   0  0  0  0  0  0  0  0  0  0  0  0
   -7.8509    4.3564  -13.3590 N   0  0  0  0  0  0  0  0  0  0  0  0
   -7.1901    5.1796  -14.5103 C   0  0  0  0  0  0  0  0  0  0  0  0
   -6.5174    6.1375  -14.4685 O   0  0  0  0  0  0  0  0  0  0  0  0
   -7.5877    4.6833  -15.8568 C   0  0  0  0  0  0  0  0  0  0  0  0
   -8.9116    4.2632  -16.0841 C   0  0  0  0  0  0  0  0  0  0  0  0
   -9.3914    3.9980  -17.3671 C   0  0  0  0  0  0  0  0  0  0  0  0
   -8.5693    4.1305  -18.4766 C   0  0  0  0  0  0  0  0  0  0  0  0
   -7.2676    4.5631  -18.2397 C   0  0  0  0  0  0  0  0  0  0  0  0
   -6.2636    4.8733  -19.1151 N   0  0  0  0  0  0  0  0  0  0  0  0
   -5.1564    5.1964  -18.3866 C   0  0  0  0  0  0  0  0  0  0  0  0
   -3.7628    5.4656  -19.0140 C   0  0  0  0  0  0  0  0  0  0  0  0
   -2.5445    5.4467  -18.1332 C   0  0  0  0  0  0  0  0  0  0  0  0
   -3.0518    6.7475  -18.6966 C   0  0  0  0  0  0  0  0  0  0  0  0
   -5.4196    5.2225  -17.0988 N   0  0  0  0  0  0  0  0  0  0  0  0
   -6.7413    4.8316  -16.9762 C   0  0  0  0  0  0  0  0  0  0  0  0
  1  2  1  0
  2  3  1  0
  3  4  2  0
  4  5  1  0
  5  6  2  0
  6  7  1  0
  7  8  1  0
  8  9  1  0
  9 10  1  0
  9 11  2  0
  9 12  2  0
  6 13  1  0
 13 14  2  0
 14 15  1  0
 15 16  1  0
 16 17  2  0
 16 18  1  0
 18 19  2  0
 19 20  1  0
 20 21  2  0
 21 22  1  0
 22 23  1  0
 23 24  1  0
 24 25  1  0
 25 26  1  0
 26 27  1  0
 24 28  2  0
 28 29  1  0
 14  3  1  0
 29 18  1  0
 29 22  2  0
 27 25  1  0
M  END
>  <name>  (1127) 
P139622

>  <alias>  (1127) 
None

>  <smina_score_min>  (1127) 
-7.923

>  <exports>  (1127) 
['/opt/xchem-fragalysis-2/maxwin/BulkDock/OUTPUTS/openbind_xx01zvns2b_c2_elabs_1LOUTNY.sdf', '/opt/xchem-fragalysis-2/maxwin/BulkDock/OUTPUTS/openbind_xx01zvns2b_c2_elabs_1LSYIIV.sdf']

>  <tags>  (1127) 
syndirella_placed,openbind_xx01zvns2b_c2_elabs,openbind_xx01zvns2b_c2_elabs_scored_6.2plus,syndirella_product,openbind_xx01zvns2b_c2_elabs_scored,openbind_xx01zvns2b_c2_elabs_scored_top80percent,BulkDock Fragalysis export

>  <subsites>  (1127) 
1 - Z4590/B/203/1

>  <smiles>  (1127) 
COc1ccc(CNS(C)(=O)=O)cc1NC(=O)c1cccc2[nH]c(C3CC3)nc12

>  <HIPPO Pose ID>  (1127) 
139622

>  <energy_score>  (1127) 
-34.673872

>  <inchikey>  (1127) 
MJVVXJWHGDAFEM-UHFFFAOYSA-N

>  <gnina_score_min>  (1127) 
6.357

>  <gnina_score>  (1127) 
6.196

>  <ref_mols>  (1127) 
Z3094a

>  <HIPPO Compound ID>  (1127) 
197974

>  <distance_score>  (1127) 
0.593175

>  <rmsd(smina/fragmenstein)>  (1127) 
0.715

>  <ref_pdb>  (1127) 
Z3094a

>  <inspiration_score>  (1127) 
None

$$$$
P139624
     RDKit          3D

 29 34  0  0  0  0  0  0  0  0999 V2000
   -6.9777    6.8297  -14.5600 O   0  0  0  0  0  0  0  0  0  0  0  0
   -7.3541    5.7282  -14.5192 C   0  0  0  0  0  0  0  0  0  0  0  0
   -7.8229    4.8788  -13.3265 N   0  0  0  0  0  0  0  0  0  0  0  0
   -8.0109    5.2202  -11.9965 C   0  0  0  0  0  0  0  0  0  0  0  0
   -7.9749    6.5412  -11.5476 C   0  0  0  0  0  0  0  0  0  0  0  0
   -8.1144    6.8434  -10.1755 C   0  0  0  0  0  0  0  0  0  0  0  0
   -8.2644    5.8286   -9.2312 C   0  0  0  0  0  0  0  0  0  0  0  0
   -8.2868    4.5351   -9.7075 C   0  0  0  0  0  0  0  0  0  0  0  0
   -8.1912    4.2425  -11.0479 C   0  0  0  0  0  0  0  0  0  0  0  0
   -7.9511    2.8251  -11.1757 C   0  0  0  0  0  0  0  0  0  0  0  0
   -7.8871    2.2842  -12.2634 O   0  0  0  0  0  0  0  0  0  0  0  0
   -7.7209    2.3665   -9.9071 N   0  0  0  0  0  0  0  0  0  0  0  0
   -6.7055    1.3969   -9.6392 C   0  0  0  0  0  0  0  0  0  0  0  0
   -5.2493    1.8322   -9.6767 C   0  0  0  0  0  0  0  0  0  0  0  0
   -5.7468    0.8421  -10.6724 C   0  0  0  0  0  0  0  0  0  0  0  0
   -8.0856    3.3030   -8.9714 C   0  0  0  0  0  0  0  0  0  0  0  0
   -8.1484    3.2834   -7.7581 O   0  0  0  0  0  0  0  0  0  0  0  0
   -7.5262    4.9922  -15.8007 C   0  0  0  0  0  0  0  0  0  0  0  0
   -8.7522    4.3603  -16.0876 C   0  0  0  0  0  0  0  0  0  0  0  0
   -9.0598    3.9302  -17.3803 C   0  0  0  0  0  0  0  0  0  0  0  0
   -8.1542    4.0895  -18.4260 C   0  0  0  0  0  0  0  0  0  0  0  0
   -6.9349    4.6886  -18.1123 C   0  0  0  0  0  0  0  0  0  0  0  0
   -5.8659    5.0285  -18.8977 N   0  0  0  0  0  0  0  0  0  0  0  0
   -4.9169    5.5971  -18.0962 C   0  0  0  0  0  0  0  0  0  0  0  0
   -3.5247    6.1088  -18.5394 C   0  0  0  0  0  0  0  0  0  0  0  0
   -3.0480    5.9568  -19.9562 C   0  0  0  0  0  0  0  0  0  0  0  0
   -2.4614    5.0969  -18.8706 C   0  0  0  0  0  0  0  0  0  0  0  0
   -5.3304    5.6922  -16.8550 N   0  0  0  0  0  0  0  0  0  0  0  0
   -6.5892    5.1335  -16.8375 C   0  0  0  0  0  0  0  0  0  0  0  0
  1  2  2  0
  2  3  1  0
  3  4  1  0
  4  5  2  0
  5  6  1  0
  6  7  2  0
  7  8  1  0
  8  9  2  0
  9 10  1  0
 10 11  2  0
 10 12  1  0
 12 13  1  0
 13 14  1  0
 14 15  1  0
 12 16  1  0
 16 17  2  0
  2 18  1  0
 18 19  2  0
 19 20  1  0
 20 21  2  0
 21 22  1  0
 22 23  1  0
 23 24  1  0
 24 25  1  0
 25 26  1  0
 26 27  1  0
 24 28  2  0
 28 29  1  0
  9  4  1  0
 15 13  1  0
 29 18  1  0
 16  8  1  0
 29 22  2  0
 27 25  1  0
M  END
>  <name>  (1128) 
P139624

>  <alias>  (1128) 
None

>  <smina_score_min>  (1128) 
-8.707

>  <exports>  (1128) 
['/opt/xchem-fragalysis-2/maxwin/BulkDock/OUTPUTS/openbind_xx01zvns2b_c2_elabs_1LOUTNY.sdf', '/opt/xchem-fragalysis-2/maxwin/BulkDock/OUTPUTS/openbind_xx01zvns2b_c2_elabs_1LSYIIV.sdf']

>  <tags>  (1128) 
syndirella_placed,openbind_xx01zvns2b_c2_elabs,openbind_xx01zvns2b_c2_elabs_scored_6.2plus,syndirella_product,openbind_xx01zvns2b_c2_elabs_scored,openbind_xx01zvns2b_c2_elabs_scored_top80percent,BulkDock Fragalysis export

>  <subsites>  (1128) 
1 - Z4590/B/203/1

>  <smiles>  (1128) 
O=C(Nc1cccc2c1C(=O)N(C1CC1)C2=O)c1cccc2[nH]c(C3CC3)nc12

>  <HIPPO Pose ID>  (1128) 
139624

>  <energy_score>  (1128) 
-20.785984

>  <inchikey>  (1128) 
QQGLCWPIVALKTR-UHFFFAOYSA-N

>  <gnina_score_min>  (1128) 
6.339

>  <gnina_score>  (1128) 
6.071

>  <ref_mols>  (1128) 
Z3094a

>  <HIPPO Compound ID>  (1128) 
197979

>  <distance_score>  (1128) 
0.972756

>  <rmsd(smina/fragmenstein)>  (1128) 
0.781

>  <ref_pdb>  (1128) 
Z3094a

>  <inspiration_score>  (1128) 
None

$$$$
P139626
     RDKit          3D

 30 34  0  0  0  0  0  0  0  0999 V2000
   -3.5523    1.0334  -11.9881 C   0  0  0  0  0  0  0  0  0  0  0  0
   -4.7313    1.5341  -11.3590 O   0  0  0  0  0  0  0  0  0  0  0  0
   -5.3635    0.7297  -10.4699 C   0  0  0  0  0  0  0  0  0  0  0  0
   -5.0799   -0.4419  -10.2448 O   0  0  0  0  0  0  0  0  0  0  0  0
   -6.4206    1.4818   -9.6807 C   0  0  0  0  0  0  0  0  0  0  0  0
   -7.2438    2.5576  -10.1840 N   0  0  0  0  0  0  0  0  0  0  0  0
   -7.0509    3.2297  -11.4563 C   0  0  0  0  0  0  0  0  0  0  0  0
   -7.6486    4.5728  -11.2109 C   0  0  0  0  0  0  0  0  0  0  0  0
   -7.8302    5.6610  -12.0458 C   0  0  0  0  0  0  0  0  0  0  0  0
   -7.7804    5.5282  -13.4259 N   0  0  0  0  0  0  0  0  0  0  0  0
   -6.8534    4.6771  -14.3175 C   0  0  0  0  0  0  0  0  0  0  0  0
   -5.9374    4.0146  -14.0381 O   0  0  0  0  0  0  0  0  0  0  0  0
   -7.3410    4.6949  -15.7130 C   0  0  0  0  0  0  0  0  0  0  0  0
   -8.6470    4.2284  -15.9671 C   0  0  0  0  0  0  0  0  0  0  0  0
   -9.1153    4.0654  -17.2696 C   0  0  0  0  0  0  0  0  0  0  0  0
   -8.2929    4.3365  -18.3595 C   0  0  0  0  0  0  0  0  0  0  0  0
   -7.0172    4.8314  -18.0820 C   0  0  0  0  0  0  0  0  0  0  0  0
   -6.0001    5.2253  -18.9093 N   0  0  0  0  0  0  0  0  0  0  0  0
   -4.9569    5.6325  -18.1252 C   0  0  0  0  0  0  0  0  0  0  0  0
   -3.5900    6.1531  -18.6299 C   0  0  0  0  0  0  0  0  0  0  0  0
   -2.4696    5.1600  -18.7857 C   0  0  0  0  0  0  0  0  0  0  0  0
   -3.0853    5.7973  -19.9999 C   0  0  0  0  0  0  0  0  0  0  0  0
   -5.2492    5.5545  -16.8479 N   0  0  0  0  0  0  0  0  0  0  0  0
   -6.5163    5.0225  -16.7943 C   0  0  0  0  0  0  0  0  0  0  0  0
   -8.2526    6.8628  -11.4773 C   0  0  0  0  0  0  0  0  0  0  0  0
   -8.4770    6.9670  -10.0897 C   0  0  0  0  0  0  0  0  0  0  0  0
   -8.4046    5.8414   -9.2750 C   0  0  0  0  0  0  0  0  0  0  0  0
   -8.0364    4.6592   -9.8757 C   0  0  0  0  0  0  0  0  0  0  0  0
   -7.8919    3.3495   -9.2550 C   0  0  0  0  0  0  0  0  0  0  0  0
   -8.2149    3.0934   -8.1131 O   0  0  0  0  0  0  0  0  0  0  0  0
  1  2  1  0
  2  3  1  0
  3  4  2  0
  3  5  1  0
  5  6  1  0
  6  7  1  0
  7  8  1  0
  8  9  2  0
  9 10  1  0
 10 11  1  0
 11 12  2  0
 11 13  1  0
 13 14  2  0
 14 15  1  0
 15 16  2  0
 16 17  1  0
 17 18  1  0
 18 19  1  0
 19 20  1  0
 20 21  1  0
 21 22  1  0
 19 23  2  0
 23 24  1  0
  9 25  1  0
 25 26  2  0
 26 27  1  0
 27 28  2  0
 28 29  1  0
 29 30  2  0
 29  6  1  0
 28  8  1  0
 24 13  1  0
 24 17  2  0
 22 20  1  0
M  END
>  <name>  (1129) 
P139626

>  <alias>  (1129) 
None

>  <smina_score_min>  (1129) 
-8.115

>  <exports>  (1129) 
['/opt/xchem-fragalysis-2/maxwin/BulkDock/OUTPUTS/openbind_xx01zvns2b_c2_elabs_1LOUTNY.sdf', '/opt/xchem-fragalysis-2/maxwin/BulkDock/OUTPUTS/openbind_xx01zvns2b_c2_elabs_1LSYIIV.sdf']

>  <tags>  (1129) 
syndirella_placed,openbind_xx01zvns2b_c2_elabs,openbind_xx01zvns2b_c2_elabs_scored_6.2plus,syndirella_product,openbind_xx01zvns2b_c2_elabs_scored,openbind_xx01zvns2b_c2_elabs_scored_top80percent,BulkDock Fragalysis export

>  <subsites>  (1129) 
1 - Z4590/B/203/1

>  <smiles>  (1129) 
COC(=O)CN1Cc2c(NC(=O)c3cccc4[nH]c(C5CC5)nc34)cccc2C1=O

>  <HIPPO Pose ID>  (1129) 
139626

>  <energy_score>  (1129) 
-12.113773

>  <inchikey>  (1129) 
INIRRARWUIPVRE-UHFFFAOYSA-N

>  <gnina_score_min>  (1129) 
6.209

>  <gnina_score>  (1129) 
5.959

>  <ref_mols>  (1129) 
Z3094a

>  <HIPPO Compound ID>  (1129) 
197982

>  <distance_score>  (1129) 
1.051252

>  <rmsd(smina/fragmenstein)>  (1129) 
0.948

>  <ref_pdb>  (1129) 
Z3094a

>  <inspiration_score>  (1129) 
None

$$$$
P139627
     RDKit          3D

 30 34  0  0  0  0  0  0  0  0999 V2000
   -6.8225    8.4193  -11.9723 C   0  0  0  0  0  0  0  0  0  0  0  0
   -7.9577    7.4325  -12.0175 C   0  0  0  0  0  0  0  0  0  0  0  0
   -9.0144    7.6376  -12.6102 O   0  0  0  0  0  0  0  0  0  0  0  0
   -7.8416    6.2165  -11.1881 C   0  0  0  0  0  0  0  0  0  0  0  0
   -7.9769    6.4423   -9.7939 C   0  0  0  0  0  0  0  0  0  0  0  0
   -8.1718    5.3826   -8.9070 C   0  0  0  0  0  0  0  0  0  0  0  0
   -8.3088    5.7483   -7.0606 Br  0  0  0  0  0  0  0  0  0  0  0  0
   -8.2394    4.1177   -9.4398 C   0  0  0  0  0  0  0  0  0  0  0  0
   -8.0311    3.8987  -10.7995 C   0  0  0  0  0  0  0  0  0  0  0  0
   -7.8360    4.9192  -11.7244 C   0  0  0  0  0  0  0  0  0  0  0  0
   -7.7160    4.6177  -13.0910 N   0  0  0  0  0  0  0  0  0  0  0  0
   -7.1955    5.4812  -14.2723 C   0  0  0  0  0  0  0  0  0  0  0  0
   -6.7153    6.5471  -14.2772 O   0  0  0  0  0  0  0  0  0  0  0  0
   -7.4598    4.8490  -15.5955 C   0  0  0  0  0  0  0  0  0  0  0  0
   -8.7319    4.3158  -15.8756 C   0  0  0  0  0  0  0  0  0  0  0  0
   -9.1143    3.9884  -17.1802 C   0  0  0  0  0  0  0  0  0  0  0  0
   -8.2457    4.1633  -18.2541 C   0  0  0  0  0  0  0  0  0  0  0  0
   -6.9912    4.6923  -17.9573 C   0  0  0  0  0  0  0  0  0  0  0  0
   -5.9552    5.0618  -18.7737 N   0  0  0  0  0  0  0  0  0  0  0  0
   -4.9497    5.5459  -17.9861 C   0  0  0  0  0  0  0  0  0  0  0  0
   -3.5831    6.0881  -18.4733 C   0  0  0  0  0  0  0  0  0  0  0  0
   -3.1440    5.9330  -19.9024 C   0  0  0  0  0  0  0  0  0  0  0  0
   -2.5039    5.1007  -18.8262 C   0  0  0  0  0  0  0  0  0  0  0  0
   -5.2873    5.5403  -16.7181 N   0  0  0  0  0  0  0  0  0  0  0  0
   -6.5676    5.0285  -16.6711 C   0  0  0  0  0  0  0  0  0  0  0  0
   -7.9979    2.4563  -10.9811 C   0  0  0  0  0  0  0  0  0  0  0  0
   -7.8208    1.9249  -12.0589 O   0  0  0  0  0  0  0  0  0  0  0  0
   -8.1966    1.8973   -9.7578 N   0  0  0  0  0  0  0  0  0  0  0  0
   -8.5092    2.8210   -8.8187 C   0  0  0  0  0  0  0  0  0  0  0  0
   -9.0117    2.6575   -7.7270 O   0  0  0  0  0  0  0  0  0  0  0  0
  1  2  1  0
  2  3  2  0
  2  4  1  0
  4  5  2  0
  5  6  1  0
  6  7  1  0
  6  8  2  0
  8  9  1  0
  9 10  2  0
 10 11  1  0
 11 12  1  0
 12 13  2  0
 12 14  1  0
 14 15  2  0
 15 16  1  0
 16 17  2  0
 17 18  1  0
 18 19  1  0
 19 20  1  0
 20 21  1  0
 21 22  1  0
 22 23  1  0
 20 24  2  0
 24 25  1  0
  9 26  1  0
 26 27  2  0
 26 28  1  0
 28 29  1  0
 29 30  2  0
 10  4  1  0
 25 14  1  0
 29  8  1  0
 25 18  2  0
 23 21  1  0
M  END
>  <name>  (1130) 
P139627

>  <alias>  (1130) 
None

>  <smina_score_min>  (1130) 
-9.113

>  <exports>  (1130) 
['/opt/xchem-fragalysis-2/maxwin/BulkDock/OUTPUTS/openbind_xx01zvns2b_c2_elabs_1LOUTNY.sdf', '/opt/xchem-fragalysis-2/maxwin/BulkDock/OUTPUTS/openbind_xx01zvns2b_c2_elabs_1LSYIIV.sdf']

>  <tags>  (1130) 
syndirella_placed,openbind_xx01zvns2b_c2_elabs,openbind_xx01zvns2b_c2_elabs_scored_6.2plus,syndirella_product,openbind_xx01zvns2b_c2_elabs_scored,openbind_xx01zvns2b_c2_elabs_scored_top80percent,BulkDock Fragalysis export

>  <subsites>  (1130) 
1 - Z4590/B/203/1

>  <smiles>  (1130) 
CC(=O)c1cc(Br)c2c(c1NC(=O)c1cccc3[nH]c(C4CC4)nc13)C(=O)NC2=O

>  <HIPPO Pose ID>  (1130) 
139627

>  <energy_score>  (1130) 
-42.131388

>  <inchikey>  (1130) 
JEBVNIYCDWANQU-UHFFFAOYSA-N

>  <gnina_score_min>  (1130) 
6.506

>  <gnina_score>  (1130) 
6.358

>  <ref_mols>  (1130) 
Z3094a

>  <HIPPO Compound ID>  (1130) 
197983

>  <distance_score>  (1130) 
0.758687

>  <rmsd(smina/fragmenstein)>  (1130) 
0.702

>  <ref_pdb>  (1130) 
Z3094a

>  <inspiration_score>  (1130) 
None

$$$$
P139629
     RDKit          3D

 30 34  0  0  0  0  0  0  0  0999 V2000
   -8.8673    3.4254   -5.0126 C   0  0  0  0  0  0  0  0  0  0  0  0
   -8.5633    4.6218   -5.9011 C   0  0  0  0  0  0  0  0  0  0  0  0
   -8.5742    5.9126   -5.0778 C   0  0  0  0  0  0  0  0  0  0  0  0
   -7.2456    4.4462   -6.6066 C   0  0  0  0  0  0  0  0  0  0  0  0
   -6.0759    4.8947   -6.1698 N   0  0  0  0  0  0  0  0  0  0  0  0
   -5.1873    4.6906   -7.1912 C   0  0  0  0  0  0  0  0  0  0  0  0
   -5.7848    4.0233   -8.2274 C   0  0  0  0  0  0  0  0  0  0  0  0
   -7.0997    3.8330   -7.8418 N   0  0  0  0  0  0  0  0  0  0  0  0
   -8.1445    3.3125   -8.7343 C   0  0  0  0  0  0  0  0  0  0  0  0
   -8.2636    4.2951   -9.8822 C   0  0  0  0  0  0  0  0  0  0  0  0
   -8.3256    5.6710   -9.5749 C   0  0  0  0  0  0  0  0  0  0  0  0
   -8.1008    6.6287  -10.5450 C   0  0  0  0  0  0  0  0  0  0  0  0
   -7.8739    6.2231  -11.8486 C   0  0  0  0  0  0  0  0  0  0  0  0
   -7.9219    4.8692  -12.1979 C   0  0  0  0  0  0  0  0  0  0  0  0
   -7.8093    4.5431  -13.5420 N   0  0  0  0  0  0  0  0  0  0  0  0
   -7.3370    5.3937  -14.7467 C   0  0  0  0  0  0  0  0  0  0  0  0
   -6.8969    6.4748  -14.7835 O   0  0  0  0  0  0  0  0  0  0  0  0
   -7.5950    4.7202  -16.0355 C   0  0  0  0  0  0  0  0  0  0  0  0
   -8.8836    4.2007  -16.2674 C   0  0  0  0  0  0  0  0  0  0  0  0
   -9.3081    3.8637  -17.5503 C   0  0  0  0  0  0  0  0  0  0  0  0
   -8.4606    4.0101  -18.6401 C   0  0  0  0  0  0  0  0  0  0  0  0
   -7.1883    4.5174  -18.3868 C   0  0  0  0  0  0  0  0  0  0  0  0
   -6.1728    4.8480  -19.2399 N   0  0  0  0  0  0  0  0  0  0  0  0
   -5.1100    5.2593  -18.4897 C   0  0  0  0  0  0  0  0  0  0  0  0
   -3.7085    5.5657  -19.0795 C   0  0  0  0  0  0  0  0  0  0  0  0
   -2.5010    5.4147  -18.1956 C   0  0  0  0  0  0  0  0  0  0  0  0
   -2.9648    6.7831  -18.6189 C   0  0  0  0  0  0  0  0  0  0  0  0
   -5.4230    5.3367  -17.2153 N   0  0  0  0  0  0  0  0  0  0  0  0
   -6.7181    4.8667  -17.1236 C   0  0  0  0  0  0  0  0  0  0  0  0
   -8.1310    3.8945  -11.2210 C   0  0  0  0  0  0  0  0  0  0  0  0
  1  2  1  0
  2  3  1  0
  2  4  1  0
  4  5  2  0
  5  6  1  0
  6  7  2  0
  7  8  1  0
  8  9  1  0
  9 10  1  0
 10 11  2  0
 11 12  1  0
 12 13  2  0
 13 14  1  0
 14 15  1  0
 15 16  1  0
 16 17  2  0
 16 18  1  0
 18 19  2  0
 19 20  1  0
 20 21  2  0
 21 22  1  0
 22 23  1  0
 23 24  1  0
 24 25  1  0
 25 26  1  0
 26 27  1  0
 24 28  2  0
 28 29  1  0
 14 30  2  0
  8  4  1  0
 30 10  1  0
 29 18  1  0
 29 22  2  0
 27 25  1  0
M  END
>  <name>  (1131) 
P139629

>  <alias>  (1131) 
None

>  <smina_score_min>  (1131) 
-8.253

>  <exports>  (1131) 
['/opt/xchem-fragalysis-2/maxwin/BulkDock/OUTPUTS/openbind_xx01zvns2b_c2_elabs_1LOUTNY.sdf', '/opt/xchem-fragalysis-2/maxwin/BulkDock/OUTPUTS/openbind_xx01zvns2b_c2_elabs_1LSYIIV.sdf']

>  <tags>  (1131) 
syndirella_placed,openbind_xx01zvns2b_c2_elabs,openbind_xx01zvns2b_c2_elabs_scored_6.2plus,syndirella_product,openbind_xx01zvns2b_c2_elabs_scored,openbind_xx01zvns2b_c2_elabs_scored_top80percent,BulkDock Fragalysis export

>  <subsites>  (1131) 
1 - Z4590/B/203/1

>  <smiles>  (1131) 
CC(C)c1nccn1Cc1cccc(NC(=O)c2cccc3[nH]c(C4CC4)nc23)c1

>  <HIPPO Pose ID>  (1131) 
139629

>  <energy_score>  (1131) 
-23.55134

>  <inchikey>  (1131) 
MREDGQXDJSERPM-UHFFFAOYSA-N

>  <gnina_score_min>  (1131) 
6.32

>  <gnina_score>  (1131) 
6.364

>  <ref_mols>  (1131) 
Z3094a

>  <HIPPO Compound ID>  (1131) 
197993

>  <distance_score>  (1131) 
0.993003

>  <rmsd(smina/fragmenstein)>  (1131) 
0.878

>  <ref_pdb>  (1131) 
Z3094a

>  <inspiration_score>  (1131) 
None

$$$$
P139630
     RDKit          3D

 30 33  0  0  0  0  0  0  0  0999 V2000
   -9.1890    4.0544   -3.6985 C   0  0  0  0  0  0  0  0  0  0  0  0
   -9.2186    3.9388   -5.1537 N   0  0  0  0  0  0  0  0  0  0  0  0
   -9.5880    5.2156   -5.7537 C   0  0  0  0  0  0  0  0  0  0  0  0
  -10.1316    2.8461   -5.5887 C   0  0  0  0  0  0  0  0  0  0  0  0
   -9.4859    1.8828   -6.6057 C   0  0  0  0  0  0  0  0  0  0  0  0
   -8.8467    2.5807   -7.6847 N   0  0  0  0  0  0  0  0  0  0  0  0
   -9.1605    2.5963   -9.1886 C   0  0  0  0  0  0  0  0  0  0  0  0
   -9.9388    1.9865   -9.8037 O   0  0  0  0  0  0  0  0  0  0  0  0
   -8.3774    3.6540   -9.9207 C   0  0  0  0  0  0  0  0  0  0  0  0
   -7.9036    4.7997   -9.2809 C   0  0  0  0  0  0  0  0  0  0  0  0
   -7.4068    5.8631  -10.0255 C   0  0  0  0  0  0  0  0  0  0  0  0
   -7.3637    5.8065  -11.4228 C   0  0  0  0  0  0  0  0  0  0  0  0
   -6.9730    7.3153  -12.1598 Cl  0  0  0  0  0  0  0  0  0  0  0  0
   -7.7589    4.6360  -12.0905 C   0  0  0  0  0  0  0  0  0  0  0  0
   -7.7558    4.4053  -13.4768 N   0  0  0  0  0  0  0  0  0  0  0  0
   -7.0910    5.2055  -14.6317 C   0  0  0  0  0  0  0  0  0  0  0  0
   -6.3816    6.1335  -14.5992 O   0  0  0  0  0  0  0  0  0  0  0  0
   -7.5462    4.7221  -15.9629 C   0  0  0  0  0  0  0  0  0  0  0  0
   -8.8750    4.2966  -16.1590 C   0  0  0  0  0  0  0  0  0  0  0  0
   -9.3709    4.0049  -17.4295 C   0  0  0  0  0  0  0  0  0  0  0  0
   -8.5626    4.1194  -18.5522 C   0  0  0  0  0  0  0  0  0  0  0  0
   -7.2589    4.5623  -18.3437 C   0  0  0  0  0  0  0  0  0  0  0  0
   -6.2631    4.8567  -19.2344 N   0  0  0  0  0  0  0  0  0  0  0  0
   -5.1520    5.2054  -18.5231 C   0  0  0  0  0  0  0  0  0  0  0  0
   -3.7638    5.4792  -19.1592 C   0  0  0  0  0  0  0  0  0  0  0  0
   -3.0053    6.7117  -18.7647 C   0  0  0  0  0  0  0  0  0  0  0  0
   -2.5338    5.3594  -18.3013 C   0  0  0  0  0  0  0  0  0  0  0  0
   -5.4042    5.2557  -17.2349 N   0  0  0  0  0  0  0  0  0  0  0  0
   -6.7185    4.8558  -17.0942 C   0  0  0  0  0  0  0  0  0  0  0  0
   -8.2859    3.5783  -11.3203 C   0  0  0  0  0  0  0  0  0  0  0  0
  1  2  1  0
  2  3  1  0
  2  4  1  0
  4  5  1  0
  5  6  1  0
  6  7  1  0
  7  8  2  0
  7  9  1  0
  9 10  2  0
 10 11  1  0
 11 12  2  0
 12 13  1  0
 12 14  1  0
 14 15  1  0
 15 16  1  0
 16 17  2  0
 16 18  1  0
 18 19  2  0
 19 20  1  0
 20 21  2  0
 21 22  1  0
 22 23  1  0
 23 24  1  0
 24 25  1  0
 25 26  1  0
 26 27  1  0
 24 28  2  0
 28 29  1  0
 14 30  2  0
 30  9  1  0
 29 18  1  0
 29 22  2  0
 27 25  1  0
M  END
>  <name>  (1132) 
P139630

>  <alias>  (1132) 
None

>  <smina_score_min>  (1132) 
-8.672

>  <exports>  (1132) 
['/opt/xchem-fragalysis-2/maxwin/BulkDock/OUTPUTS/openbind_xx01zvns2b_c2_elabs_1LOUTNY.sdf', '/opt/xchem-fragalysis-2/maxwin/BulkDock/OUTPUTS/openbind_xx01zvns2b_c2_elabs_1LSYIIV.sdf']

>  <tags>  (1132) 
syndirella_placed,openbind_xx01zvns2b_c2_elabs,openbind_xx01zvns2b_c2_elabs_scored_6.2plus,syndirella_product,openbind_xx01zvns2b_c2_elabs_scored,openbind_xx01zvns2b_c2_elabs_scored_top80percent,BulkDock Fragalysis export

>  <subsites>  (1132) 
1 - Z4590/B/203/1

>  <smiles>  (1132) 
CN(C)CCNC(=O)c1ccc(Cl)c(NC(=O)c2cccc3[nH]c(C4CC4)nc23)c1

>  <HIPPO Pose ID>  (1132) 
139630

>  <energy_score>  (1132) 
-12.395085

>  <inchikey>  (1132) 
TVKFAFXCSQBSGJ-UHFFFAOYSA-N

>  <gnina_score_min>  (1132) 
6.497

>  <gnina_score>  (1132) 
6.403

>  <ref_mols>  (1132) 
Z3094a

>  <HIPPO Compound ID>  (1132) 
197996

>  <distance_score>  (1132) 
0.651715

>  <rmsd(smina/fragmenstein)>  (1132) 
0.698

>  <ref_pdb>  (1132) 
Z3094a

>  <inspiration_score>  (1132) 
None

$$$$
P139633
     RDKit          3D

 30 34  0  0  0  0  0  0  0  0999 V2000
   -9.0902    5.5278   -5.5745 C   0  0  0  0  0  0  0  0  0  0  0  0
   -8.9329    5.2435   -6.9645 O   0  0  0  0  0  0  0  0  0  0  0  0
   -8.2736    6.1991   -7.6614 C   0  0  0  0  0  0  0  0  0  0  0  0
   -7.8448    7.2483   -7.2098 O   0  0  0  0  0  0  0  0  0  0  0  0
   -8.1845    5.8200   -9.0936 C   0  0  0  0  0  0  0  0  0  0  0  0
   -7.9790    6.8336  -10.0434 C   0  0  0  0  0  0  0  0  0  0  0  0
   -7.8290    6.5396  -11.4153 C   0  0  0  0  0  0  0  0  0  0  0  0
   -7.8871    5.2254  -11.8676 C   0  0  0  0  0  0  0  0  0  0  0  0
   -7.7246    4.8873  -13.2050 N   0  0  0  0  0  0  0  0  0  0  0  0
   -7.3118    5.7504  -14.4125 C   0  0  0  0  0  0  0  0  0  0  0  0
   -6.9684    6.8635  -14.4636 O   0  0  0  0  0  0  0  0  0  0  0  0
   -7.4953    5.0126  -15.6927 C   0  0  0  0  0  0  0  0  0  0  0  0
   -8.7281    4.3871  -15.9623 C   0  0  0  0  0  0  0  0  0  0  0  0
   -9.0625    3.9702  -17.2535 C   0  0  0  0  0  0  0  0  0  0  0  0
   -8.1779    4.1336  -18.3166 C   0  0  0  0  0  0  0  0  0  0  0  0
   -6.9509    4.7252  -18.0204 C   0  0  0  0  0  0  0  0  0  0  0  0
   -5.9011    5.0759  -18.8265 N   0  0  0  0  0  0  0  0  0  0  0  0
   -4.9313    5.6291  -18.0397 C   0  0  0  0  0  0  0  0  0  0  0  0
   -3.5478    6.1411  -18.5102 C   0  0  0  0  0  0  0  0  0  0  0  0
   -2.4844    5.1280  -18.8390 C   0  0  0  0  0  0  0  0  0  0  0  0
   -3.0888    5.9673  -19.9306 C   0  0  0  0  0  0  0  0  0  0  0  0
   -5.3166    5.7111  -16.7883 N   0  0  0  0  0  0  0  0  0  0  0  0
   -6.5778    5.1574  -16.7478 C   0  0  0  0  0  0  0  0  0  0  0  0
   -8.0982    4.2483  -10.9162 C   0  0  0  0  0  0  0  0  0  0  0  0
   -8.2245    4.5126   -9.5498 C   0  0  0  0  0  0  0  0  0  0  0  0
   -8.2429    3.2270   -8.7982 C   0  0  0  0  0  0  0  0  0  0  0  0
   -7.8579    2.2787   -9.8207 N   0  0  0  0  0  0  0  0  0  0  0  0
   -6.8161    1.3309   -9.5431 C   0  0  0  0  0  0  0  0  0  0  0  0
   -7.9173    2.8161  -11.0903 C   0  0  0  0  0  0  0  0  0  0  0  0
   -7.7129    2.2944  -12.1688 O   0  0  0  0  0  0  0  0  0  0  0  0
  1  2  1  0
  2  3  1  0
  3  4  2  0
  3  5  1  0
  5  6  2  0
  6  7  1  0
  7  8  2  0
  8  9  1  0
  9 10  1  0
 10 11  2  0
 10 12  1  0
 12 13  2  0
 13 14  1  0
 14 15  2  0
 15 16  1  0
 16 17  1  0
 17 18  1  0
 18 19  1  0
 19 20  1  0
 20 21  1  0
 18 22  2  0
 22 23  1  0
  8 24  1  0
 24 25  2  0
 25 26  1  0
 26 27  1  0
 27 28  1  0
 27 29  1  0
 29 30  2  0
 25  5  1  0
 23 12  1  0
 29 24  1  0
 23 16  2  0
 21 19  1  0
M  END
>  <name>  (1133) 
P139633

>  <alias>  (1133) 
None

>  <smina_score_min>  (1133) 
-8.109

>  <exports>  (1133) 
['/opt/xchem-fragalysis-2/maxwin/BulkDock/OUTPUTS/openbind_xx01zvns2b_c2_elabs_1LOUTNY.sdf', '/opt/xchem-fragalysis-2/maxwin/BulkDock/OUTPUTS/openbind_xx01zvns2b_c2_elabs_1LSYIIV.sdf']

>  <tags>  (1133) 
syndirella_placed,openbind_xx01zvns2b_c2_elabs,openbind_xx01zvns2b_c2_elabs_scored_6.2plus,syndirella_product,openbind_xx01zvns2b_c2_elabs_scored,openbind_xx01zvns2b_c2_elabs_scored_top80percent,BulkDock Fragalysis export

>  <subsites>  (1133) 
1 - Z4590/B/203/1

>  <smiles>  (1133) 
COC(=O)c1ccc(NC(=O)c2cccc3[nH]c(C4CC4)nc23)c2c1CN(C)C2=O

>  <HIPPO Pose ID>  (1133) 
139633

>  <energy_score>  (1133) 
-22.935818

>  <inchikey>  (1133) 
KYCWTQPCZVDMQQ-UHFFFAOYSA-N

>  <gnina_score_min>  (1133) 
6.277

>  <gnina_score>  (1133) 
6.154

>  <ref_mols>  (1133) 
Z3094a

>  <HIPPO Compound ID>  (1133) 
198002

>  <distance_score>  (1133) 
0.956499

>  <rmsd(smina/fragmenstein)>  (1133) 
0.921

>  <ref_pdb>  (1133) 
Z3094a

>  <inspiration_score>  (1133) 
None

$$$$
P139637
     RDKit          3D

 30 34  0  0  0  0  0  0  0  0999 V2000
   -8.4253    3.4020   -4.9511 C   0  0  0  0  0  0  0  0  0  0  0  0
   -8.4243    3.6563   -6.4626 C   0  0  0  0  0  0  0  0  0  0  0  0
   -7.1485    4.4352   -6.7916 C   0  0  0  0  0  0  0  0  0  0  0  0
   -9.5306    4.5674   -6.6453 O   0  0  0  0  0  0  0  0  0  0  0  0
   -8.6896    2.3059   -7.2631 C   0  0  0  0  0  0  0  0  0  0  0  0
   -8.5698    2.2074   -8.7298 N   0  0  0  0  0  0  0  0  0  0  0  0
   -7.2774    1.9731   -9.3990 C   0  0  0  0  0  0  0  0  0  0  0  0
   -7.2931    2.3626  -10.9472 C   0  0  0  0  0  0  0  0  0  0  0  0
   -7.6385    3.8305  -11.0525 C   0  0  0  0  0  0  0  0  0  0  0  0
   -8.4596    4.2854  -10.0212 C   0  0  0  0  0  0  0  0  0  0  0  0
   -8.4398    5.6234   -9.6384 C   0  0  0  0  0  0  0  0  0  0  0  0
   -7.7155    6.5350  -10.3836 C   0  0  0  0  0  0  0  0  0  0  0  0
   -7.1414    6.1156  -11.5781 C   0  0  0  0  0  0  0  0  0  0  0  0
   -7.1857    4.7691  -11.9636 C   0  0  0  0  0  0  0  0  0  0  0  0
   -7.1719    4.4963  -13.3288 N   0  0  0  0  0  0  0  0  0  0  0  0
   -7.0365    5.4474  -14.5423 C   0  0  0  0  0  0  0  0  0  0  0  0
   -6.8378    6.5982  -14.5841 O   0  0  0  0  0  0  0  0  0  0  0  0
   -7.3020    4.7725  -15.8239 C   0  0  0  0  0  0  0  0  0  0  0  0
   -8.5823    4.2243  -16.0383 C   0  0  0  0  0  0  0  0  0  0  0  0
   -9.0140    3.9006  -17.3263 C   0  0  0  0  0  0  0  0  0  0  0  0
   -8.1903    4.0978  -18.4340 C   0  0  0  0  0  0  0  0  0  0  0  0
   -6.9318    4.6488  -18.1910 C   0  0  0  0  0  0  0  0  0  0  0  0
   -5.9310    5.0400  -19.0405 N   0  0  0  0  0  0  0  0  0  0  0  0
   -4.9103    5.5425  -18.2827 C   0  0  0  0  0  0  0  0  0  0  0  0
   -3.5656    6.0942  -18.8075 C   0  0  0  0  0  0  0  0  0  0  0  0
   -3.0271    5.6810  -20.1466 C   0  0  0  0  0  0  0  0  0  0  0  0
   -2.4008    5.1441  -18.8898 C   0  0  0  0  0  0  0  0  0  0  0  0
   -5.2060    5.5377  -17.0058 N   0  0  0  0  0  0  0  0  0  0  0  0
   -6.4621    4.9853  -16.9237 C   0  0  0  0  0  0  0  0  0  0  0  0
   -9.3185    3.2323   -9.3947 C   0  0  0  0  0  0  0  0  0  0  0  0
  1  2  1  0
  2  3  1  0
  2  4  1  0
  2  5  1  0
  5  6  1  0
  6  7  1  0
  7  8  1  0
  8  9  1  0
  9 10  2  0
 10 11  1  0
 11 12  2  0
 12 13  1  0
 13 14  2  0
 14 15  1  0
 15 16  1  0
 16 17  2  0
 16 18  1  0
 18 19  2  0
 19 20  1  0
 20 21  2  0
 21 22  1  0
 22 23  1  0
 23 24  1  0
 24 25  1  0
 25 26  1  0
 26 27  1  0
 24 28  2  0
 28 29  1  0
 10 30  1  0
 30  6  1  0
 14  9  1  0
 29 18  1  0
 29 22  2  0
 27 25  1  0
M  END
>  <name>  (1134) 
P139637

>  <alias>  (1134) 
None

>  <smina_score_min>  (1134) 
-7.518

>  <exports>  (1134) 
['/opt/xchem-fragalysis-2/maxwin/BulkDock/OUTPUTS/openbind_xx01zvns2b_c2_elabs_1LOUTNY.sdf', '/opt/xchem-fragalysis-2/maxwin/BulkDock/OUTPUTS/openbind_xx01zvns2b_c2_elabs_1LSYIIV.sdf']

>  <tags>  (1134) 
syndirella_placed,openbind_xx01zvns2b_c2_elabs,openbind_xx01zvns2b_c2_elabs_scored_6.2plus,syndirella_product,openbind_xx01zvns2b_c2_elabs_scored,openbind_xx01zvns2b_c2_elabs_scored_top80percent,BulkDock Fragalysis export

>  <subsites>  (1134) 
1 - Z4590/B/203/1

>  <smiles>  (1134) 
CC(C)(O)CN1CCc2c(cccc2NC(=O)c2cccc3[nH]c(C4CC4)nc23)C1

>  <HIPPO Pose ID>  (1134) 
139637

>  <energy_score>  (1134) 
-12.563258

>  <inchikey>  (1134) 
WTRLKGPXQBSBKQ-UHFFFAOYSA-N

>  <gnina_score_min>  (1134) 
6.253

>  <gnina_score>  (1134) 
6.056

>  <ref_mols>  (1134) 
Z3094a

>  <HIPPO Compound ID>  (1134) 
198005

>  <distance_score>  (1134) 
0.870394

>  <rmsd(smina/fragmenstein)>  (1134) 
1.731

>  <ref_pdb>  (1134) 
Z3094a

>  <inspiration_score>  (1134) 
None

$$$$
P139639
     RDKit          3D

 30 34  0  0  0  0  0  0  0  0999 V2000
   -3.3782    1.1075  -12.6937 C   0  0  0  0  0  0  0  0  0  0  0  0
   -2.8292    0.8183  -11.3159 C   0  0  0  0  0  0  0  0  0  0  0  0
   -3.9209    1.1788   -9.9337 S   0  0  0  0  0  0  0  0  0  0  0  0
   -4.7531    0.0177   -9.7138 O   0  0  0  0  0  0  0  0  0  0  0  0
   -3.0940    1.7181   -8.8692 O   0  0  0  0  0  0  0  0  0  0  0  0
   -4.9140    2.4144  -10.4078 N   0  0  0  0  0  0  0  0  0  0  0  0
   -4.2688    3.6350  -10.9071 C   0  0  0  0  0  0  0  0  0  0  0  0
   -5.1811    4.0837  -12.0307 C   0  0  0  0  0  0  0  0  0  0  0  0
   -6.5242    4.4551  -11.4636 C   0  0  0  0  0  0  0  0  0  0  0  0
   -6.8576    3.9659  -10.1720 C   0  0  0  0  0  0  0  0  0  0  0  0
   -7.8006    4.6549   -9.4181 C   0  0  0  0  0  0  0  0  0  0  0  0
   -8.3946    5.7878   -9.9640 C   0  0  0  0  0  0  0  0  0  0  0  0
   -8.2305    6.0935  -11.3216 C   0  0  0  0  0  0  0  0  0  0  0  0
   -7.3538    5.3651  -12.1096 C   0  0  0  0  0  0  0  0  0  0  0  0
   -7.5562    5.3572  -13.4974 N   0  0  0  0  0  0  0  0  0  0  0  0
   -6.6372    4.8611  -14.6486 C   0  0  0  0  0  0  0  0  0  0  0  0
   -5.5414    4.4555  -14.6215 O   0  0  0  0  0  0  0  0  0  0  0  0
   -7.3472    4.8304  -15.9462 C   0  0  0  0  0  0  0  0  0  0  0  0
   -8.6727    4.3526  -16.0215 C   0  0  0  0  0  0  0  0  0  0  0  0
   -9.2911    4.1308  -17.2526 C   0  0  0  0  0  0  0  0  0  0  0  0
   -8.6014    4.3232  -18.4452 C   0  0  0  0  0  0  0  0  0  0  0  0
   -7.2898    4.7839  -18.3446 C   0  0  0  0  0  0  0  0  0  0  0  0
   -6.3639    5.0827  -19.3080 N   0  0  0  0  0  0  0  0  0  0  0  0
   -5.2004    5.4214  -18.6789 C   0  0  0  0  0  0  0  0  0  0  0  0
   -3.8452    5.6601  -19.3939 C   0  0  0  0  0  0  0  0  0  0  0  0
   -2.9320    6.7449  -18.9042 C   0  0  0  0  0  0  0  0  0  0  0  0
   -2.5797    5.3033  -18.6569 C   0  0  0  0  0  0  0  0  0  0  0  0
   -5.3605    5.4855  -17.3775 N   0  0  0  0  0  0  0  0  0  0  0  0
   -6.6435    5.0458  -17.1410 C   0  0  0  0  0  0  0  0  0  0  0  0
   -6.1250    2.7490   -9.6002 C   0  0  0  0  0  0  0  0  0  0  0  0
  1  2  1  0
  2  3  1  0
  3  4  2  0
  3  5  2  0
  3  6  1  0
  6  7  1  0
  7  8  1  0
  8  9  1  0
  9 10  2  0
 10 11  1  0
 11 12  2  0
 12 13  1  0
 13 14  2  0
 14 15  1  0
 15 16  1  0
 16 17  2  0
 16 18  1  0
 18 19  2  0
 19 20  1  0
 20 21  2  0
 21 22  1  0
 22 23  1  0
 23 24  1  0
 24 25  1  0
 25 26  1  0
 26 27  1  0
 24 28  2  0
 28 29  1  0
 10 30  1  0
 30  6  1  0
 14  9  1  0
 29 18  1  0
 29 22  2  0
 27 25  1  0
M  END
>  <name>  (1135) 
P139639

>  <alias>  (1135) 
None

>  <smina_score_min>  (1135) 
-8.079

>  <exports>  (1135) 
['/opt/xchem-fragalysis-2/maxwin/BulkDock/OUTPUTS/openbind_xx01zvns2b_c2_elabs_1LOUTNY.sdf', '/opt/xchem-fragalysis-2/maxwin/BulkDock/OUTPUTS/openbind_xx01zvns2b_c2_elabs_1LSYIIV.sdf']

>  <tags>  (1135) 
syndirella_placed,openbind_xx01zvns2b_c2_elabs,openbind_xx01zvns2b_c2_elabs_scored_6.2plus,syndirella_product,openbind_xx01zvns2b_c2_elabs_scored,openbind_xx01zvns2b_c2_elabs_scored_top80percent,BulkDock Fragalysis export

>  <subsites>  (1135) 
1 - Z4590/B/203/1

>  <smiles>  (1135) 
CCS(=O)(=O)N1CCc2c(cccc2NC(=O)c2cccc3[nH]c(C4CC4)nc23)C1

>  <HIPPO Pose ID>  (1135) 
139639

>  <energy_score>  (1135) 
-7.574317

>  <inchikey>  (1135) 
KMMQHAHFDUPOSV-UHFFFAOYSA-N

>  <gnina_score_min>  (1135) 
6.212

>  <gnina_score>  (1135) 
6.481

>  <ref_mols>  (1135) 
Z3094a

>  <HIPPO Compound ID>  (1135) 
198014

>  <distance_score>  (1135) 
1.502742

>  <rmsd(smina/fragmenstein)>  (1135) 
0.587

>  <ref_pdb>  (1135) 
Z3094a

>  <inspiration_score>  (1135) 
None

$$$$
P139640
     RDKit          3D

 30 35  0  0  0  0  0  0  0  0999 V2000
   -7.0371    6.4009  -14.3346 O   0  0  0  0  0  0  0  0  0  0  0  0
   -7.3814    5.2857  -14.4160 C   0  0  0  0  0  0  0  0  0  0  0  0
   -7.7458    4.2604  -13.3052 N   0  0  0  0  0  0  0  0  0  0  0  0
   -7.8487    4.4209  -11.9218 C   0  0  0  0  0  0  0  0  0  0  0  0
   -7.5069    5.6717  -11.3614 C   0  0  0  0  0  0  0  0  0  0  0  0
   -7.6385    5.9171   -9.9980 C   0  0  0  0  0  0  0  0  0  0  0  0
   -8.0966    4.8776   -9.2217 C   0  0  0  0  0  0  0  0  0  0  0  0
   -8.4146    3.6386   -9.7418 C   0  0  0  0  0  0  0  0  0  0  0  0
   -8.3087    3.3778  -11.1021 C   0  0  0  0  0  0  0  0  0  0  0  0
   -8.9125    2.8336   -8.6183 C   0  0  0  0  0  0  0  0  0  0  0  0
   -9.3983    1.7277   -8.7444 O   0  0  0  0  0  0  0  0  0  0  0  0
   -8.8054    3.6120   -7.4872 N   0  0  0  0  0  0  0  0  0  0  0  0
   -9.4136    3.2428   -6.2215 C   0  0  0  0  0  0  0  0  0  0  0  0
   -8.5643    3.6242   -5.0426 C   0  0  0  0  0  0  0  0  0  0  0  0
   -9.2109    3.7989   -3.6889 C   0  0  0  0  0  0  0  0  0  0  0  0
   -8.6381    4.9881   -4.3929 C   0  0  0  0  0  0  0  0  0  0  0  0
   -8.4145    4.8799   -7.8047 C   0  0  0  0  0  0  0  0  0  0  0  0
   -8.3837    5.8992   -7.1405 O   0  0  0  0  0  0  0  0  0  0  0  0
   -7.6142    4.7492  -15.7762 C   0  0  0  0  0  0  0  0  0  0  0  0
   -8.8587    4.1960  -16.1151 C   0  0  0  0  0  0  0  0  0  0  0  0
   -9.1742    3.8872  -17.4397 C   0  0  0  0  0  0  0  0  0  0  0  0
   -8.2567    4.0951  -18.4666 C   0  0  0  0  0  0  0  0  0  0  0  0
   -7.0283    4.6473  -18.1075 C   0  0  0  0  0  0  0  0  0  0  0  0
   -5.9498    5.0234  -18.8632 N   0  0  0  0  0  0  0  0  0  0  0  0
   -4.9984    5.5258  -18.0205 C   0  0  0  0  0  0  0  0  0  0  0  0
   -3.6071    6.0724  -18.4284 C   0  0  0  0  0  0  0  0  0  0  0  0
   -2.5294    5.0907  -18.8013 C   0  0  0  0  0  0  0  0  0  0  0  0
   -3.1198    5.9942  -19.8485 C   0  0  0  0  0  0  0  0  0  0  0  0
   -5.4107    5.5228  -16.7741 N   0  0  0  0  0  0  0  0  0  0  0  0
   -6.6771    4.9786  -16.8006 C   0  0  0  0  0  0  0  0  0  0  0  0
  1  2  2  0
  2  3  1  0
  3  4  1  0
  4  5  2  0
  5  6  1  0
  6  7  2  0
  7  8  1  0
  8  9  2  0
  8 10  1  0
 10 11  2  0
 10 12  1  0
 12 13  1  0
 13 14  1  0
 14 15  1  0
 15 16  1  0
 12 17  1  0
 17 18  2  0
  2 19  1  0
 19 20  2  0
 20 21  1  0
 21 22  2  0
 22 23  1  0
 23 24  1  0
 24 25  1  0
 25 26  1  0
 26 27  1  0
 27 28  1  0
 25 29  2  0
 29 30  1  0
  9  4  1  0
 16 14  1  0
 30 19  1  0
 17  7  1  0
 30 23  2  0
 28 26  1  0
M  END
>  <name>  (1136) 
P139640

>  <alias>  (1136) 
None

>  <smina_score_min>  (1136) 
-9.607

>  <exports>  (1136) 
['/opt/xchem-fragalysis-2/maxwin/BulkDock/OUTPUTS/openbind_xx01zvns2b_c2_elabs_1LOUTNY.sdf', '/opt/xchem-fragalysis-2/maxwin/BulkDock/OUTPUTS/openbind_xx01zvns2b_c2_elabs_1LSYIIV.sdf']

>  <tags>  (1136) 
syndirella_placed,openbind_xx01zvns2b_c2_elabs,openbind_xx01zvns2b_c2_elabs_scored_6.2plus,syndirella_product,openbind_xx01zvns2b_c2_elabs_scored,openbind_xx01zvns2b_c2_elabs_scored_top80percent,BulkDock Fragalysis export

>  <subsites>  (1136) 
1 - Z4590/B/203/1

>  <smiles>  (1136) 
O=C(Nc1ccc2c(c1)C(=O)N(CC1CC1)C2=O)c1cccc2[nH]c(C3CC3)nc12

>  <HIPPO Pose ID>  (1136) 
139640

>  <energy_score>  (1136) 
-38.111902

>  <inchikey>  (1136) 
DPWOZGDBBPVZCN-UHFFFAOYSA-N

>  <gnina_score_min>  (1136) 
6.212

>  <gnina_score>  (1136) 
6.037

>  <ref_mols>  (1136) 
Z3094a

>  <HIPPO Compound ID>  (1136) 
198015

>  <distance_score>  (1136) 
0.563069

>  <rmsd(smina/fragmenstein)>  (1136) 
0.485

>  <ref_pdb>  (1136) 
Z3094a

>  <inspiration_score>  (1136) 
None

$$$$
P139645
     RDKit          3D

 30 34  0  0  0  0  0  0  0  0999 V2000
   -9.5169    5.9426   -5.8810 C   0  0  0  0  0  0  0  0  0  0  0  0
   -8.7671    4.6741   -5.5164 C   0  0  2  0  0  0  0  0  0  0  0  0
   -7.9133    4.0489   -6.6543 C   0  0  0  0  0  0  0  0  0  0  0  0
   -8.4686    2.9841   -7.4890 N   0  0  0  0  0  0  0  0  0  0  0  0
   -8.9995    3.1014   -8.8381 C   0  0  0  0  0  0  0  0  0  0  0  0
   -8.4161    4.1190   -9.7903 C   0  0  0  0  0  0  0  0  0  0  0  0
   -8.2880    5.4640   -9.4236 C   0  0  0  0  0  0  0  0  0  0  0  0
   -7.7785    6.4141  -10.2940 C   0  0  0  0  0  0  0  0  0  0  0  0
   -7.4840    6.0492  -11.5958 C   0  0  0  0  0  0  0  0  0  0  0  0
   -7.7251    4.7475  -12.0364 C   0  0  0  0  0  0  0  0  0  0  0  0
   -7.6369    4.4793  -13.3987 N   0  0  0  0  0  0  0  0  0  0  0  0
   -7.2831    5.4087  -14.5855 C   0  0  0  0  0  0  0  0  0  0  0  0
   -6.9358    6.5241  -14.5961 O   0  0  0  0  0  0  0  0  0  0  0  0
   -7.5309    4.7693  -15.8938 C   0  0  0  0  0  0  0  0  0  0  0  0
   -8.7897    4.2100  -16.1732 C   0  0  0  0  0  0  0  0  0  0  0  0
   -9.1475    3.8682  -17.4784 C   0  0  0  0  0  0  0  0  0  0  0  0
   -8.2660    4.0573  -18.5407 C   0  0  0  0  0  0  0  0  0  0  0  0
   -7.0251    4.6157  -18.2372 C   0  0  0  0  0  0  0  0  0  0  0  0
   -5.9834    5.0041  -19.0376 N   0  0  0  0  0  0  0  0  0  0  0  0
   -5.0004    5.5092  -18.2331 C   0  0  0  0  0  0  0  0  0  0  0  0
   -3.6368    6.0765  -18.6945 C   0  0  0  0  0  0  0  0  0  0  0  0
   -2.4838    5.1216  -18.8494 C   0  0  0  0  0  0  0  0  0  0  0  0
   -3.0895    5.7752  -20.0603 C   0  0  0  0  0  0  0  0  0  0  0  0
   -5.3587    5.5021  -16.9716 N   0  0  0  0  0  0  0  0  0  0  0  0
   -6.6263    4.9647  -16.9499 C   0  0  0  0  0  0  0  0  0  0  0  0
   -8.1590    3.7741  -11.1327 C   0  0  0  0  0  0  0  0  0  0  0  0
   -9.2978    2.0933   -6.6709 C   0  0  0  0  0  0  0  0  0  0  0  0
  -10.3131    2.8953   -5.8452 C   0  0  1  0  0  0  0  0  0  0  0  0
  -11.2187    1.9532   -5.0991 C   0  0  0  0  0  0  0  0  0  0  0  0
   -9.6646    3.7481   -4.8919 O   0  0  0  0  0  0  0  0  0  0  0  0
  2  1  1  6
  2  3  1  0
  3  4  1  0
  4  5  1  0
  5  6  1  0
  6  7  2  0
  7  8  1  0
  8  9  2  0
  9 10  1  0
 10 11  1  0
 11 12  1  0
 12 13  2  0
 12 14  1  0
 14 15  2  0
 15 16  1  0
 16 17  2  0
 17 18  1  0
 18 19  1  0
 19 20  1  0
 20 21  1  0
 21 22  1  0
 22 23  1  0
 20 24  2  0
 24 25  1  0
 10 26  2  0
  4 27  1  0
 27 28  1  0
 28 29  1  1
 28 30  1  0
 30  2  1  0
 26  6  1  0
 25 14  1  0
 25 18  2  0
 23 21  1  0
M  END
>  <name>  (1137) 
P139645

>  <alias>  (1137) 
None

>  <smina_score_min>  (1137) 
-8.975

>  <exports>  (1137) 
['/opt/xchem-fragalysis-2/maxwin/BulkDock/OUTPUTS/openbind_xx01zvns2b_c2_elabs_1LOUTNY.sdf', '/opt/xchem-fragalysis-2/maxwin/BulkDock/OUTPUTS/openbind_xx01zvns2b_c2_elabs_1LSYIIV.sdf']

>  <tags>  (1137) 
syndirella_placed,openbind_xx01zvns2b_c2_elabs,openbind_xx01zvns2b_c2_elabs_scored_6.2plus,syndirella_product,openbind_xx01zvns2b_c2_elabs_scored,openbind_xx01zvns2b_c2_elabs_scored_top80percent,BulkDock Fragalysis export

>  <subsites>  (1137) 
1 - Z4590/B/203/1

>  <smiles>  (1137) 
C[C@@H]1CN(Cc2cccc(NC(=O)c3cccc4[nH]c(C5CC5)nc34)c2)C[C@@H](C)O1

>  <HIPPO Pose ID>  (1137) 
139645

>  <energy_score>  (1137) 
-10.255128

>  <inchikey>  (1137) 
ICQGATWNTRALEM-HZPDHXFCSA-N

>  <gnina_score_min>  (1137) 
6.321

>  <gnina_score>  (1137) 
6.09

>  <ref_mols>  (1137) 
Z3094a

>  <HIPPO Compound ID>  (1137) 
198028

>  <distance_score>  (1137) 
0.75413

>  <rmsd(smina/fragmenstein)>  (1137) 
0.461

>  <ref_pdb>  (1137) 
Z3094a

>  <inspiration_score>  (1137) 
None

$$$$
P139650
     RDKit          3D

 30 33  0  0  0  0  0  0  0  0999 V2000
   -5.6725    4.4725  -13.8158 O   0  0  0  0  0  0  0  0  0  0  0  0
   -6.7539    4.8534  -14.0192 C   0  0  0  0  0  0  0  0  0  0  0  0
   -7.8088    5.4340  -13.0516 N   0  0  0  0  0  0  0  0  0  0  0  0
   -7.7843    5.5815  -11.5797 C   0  0  1  0  0  0  0  0  0  0  0  0
   -8.2314    4.3273  -10.8310 C   0  0  0  0  0  0  0  0  0  0  0  0
   -8.7498    3.2489  -11.5259 C   0  0  0  0  0  0  0  0  0  0  0  0
   -9.3531    2.2039  -10.8433 C   0  0  0  0  0  0  0  0  0  0  0  0
   -9.3374    2.1005   -9.4617 C   0  0  0  0  0  0  0  0  0  0  0  0
   -8.7651    3.1274   -8.7416 C   0  0  0  0  0  0  0  0  0  0  0  0
   -8.7969    3.0703   -7.2844 N   0  0  0  0  0  0  0  0  0  0  0  0
   -8.1349    3.9058   -6.6485 O   0  0  0  0  0  0  0  0  0  0  0  0
   -9.5525    2.2376   -6.7558 O   0  0  0  0  0  0  0  0  0  0  0  0
   -8.2689    4.2490   -9.4200 C   0  0  0  0  0  0  0  0  0  0  0  0
   -7.9100    5.3272   -8.7217 F   0  0  0  0  0  0  0  0  0  0  0  0
   -6.4722    6.1800  -11.0503 C   0  0  0  0  0  0  0  0  0  0  0  0
   -6.6974    6.8222   -9.8786 F   0  0  0  0  0  0  0  0  0  0  0  0
   -5.5042    5.2663  -10.8385 F   0  0  0  0  0  0  0  0  0  0  0  0
   -5.9829    7.1240  -11.8941 F   0  0  0  0  0  0  0  0  0  0  0  0
   -7.2992    4.7423  -15.4168 C   0  0  0  0  0  0  0  0  0  0  0  0
   -8.6050    4.2757  -15.6709 C   0  0  0  0  0  0  0  0  0  0  0  0
   -9.0856    4.0988  -16.9735 C   0  0  0  0  0  0  0  0  0  0  0  0
   -8.2793    4.3426  -18.0808 C   0  0  0  0  0  0  0  0  0  0  0  0
   -7.0002    4.8250  -17.8162 C   0  0  0  0  0  0  0  0  0  0  0  0
   -5.9888    5.1921  -18.6641 N   0  0  0  0  0  0  0  0  0  0  0  0
   -4.9396    5.6221  -17.9034 C   0  0  0  0  0  0  0  0  0  0  0  0
   -3.5779    6.1358  -18.4337 C   0  0  0  0  0  0  0  0  0  0  0  0
   -3.1723    5.9351  -19.8676 C   0  0  0  0  0  0  0  0  0  0  0  0
   -2.5211    5.1228  -18.7832 C   0  0  0  0  0  0  0  0  0  0  0  0
   -5.2230    5.5760  -16.6226 N   0  0  0  0  0  0  0  0  0  0  0  0
   -6.4904    5.0408  -16.5338 C   0  0  0  0  0  0  0  0  0  0  0  0
  1  2  2  0
  2  3  1  0
  4  3  1  6
  4  5  1  0
  5  6  2  0
  6  7  1  0
  7  8  2  0
  8  9  1  0
  9 10  1  0
 10 11  2  0
 10 12  1  0
  9 13  2  0
 13 14  1  0
  4 15  1  0
 15 16  1  0
 15 17  1  0
 15 18  1  0
  2 19  1  0
 19 20  2  0
 20 21  1  0
 21 22  2  0
 22 23  1  0
 23 24  1  0
 24 25  1  0
 25 26  1  0
 26 27  1  0
 27 28  1  0
 25 29  2  0
 29 30  1  0
 13  5  1  0
 30 19  1  0
 30 23  2  0
 28 26  1  0
M  CHG  2  10   1  12  -1
M  END
>  <name>  (1138) 
P139650

>  <alias>  (1138) 
None

>  <smina_score_min>  (1138) 
-8.063

>  <exports>  (1138) 
['/opt/xchem-fragalysis-2/maxwin/BulkDock/OUTPUTS/openbind_xx01zvns2b_c2_elabs_1LOUTNY.sdf', '/opt/xchem-fragalysis-2/maxwin/BulkDock/OUTPUTS/openbind_xx01zvns2b_c2_elabs_1LSYIIV.sdf']

>  <tags>  (1138) 
syndirella_placed,openbind_xx01zvns2b_c2_elabs,openbind_xx01zvns2b_c2_elabs_scored_6.2plus,syndirella_product,openbind_xx01zvns2b_c2_elabs_scored,openbind_xx01zvns2b_c2_elabs_scored_top80percent,BulkDock Fragalysis export

>  <subsites>  (1138) 
1 - Z4590/B/203/1

>  <smiles>  (1138) 
O=C(N[C@@H](c1cccc([N+](=O)[O-])c1F)C(F)(F)F)c1cccc2[nH]c(C3CC3)nc12

>  <HIPPO Pose ID>  (1138) 
139650

>  <energy_score>  (1138) 
-8.527119

>  <inchikey>  (1138) 
NNMRYPXOQJOZEA-INIZCTEOSA-N

>  <gnina_score_min>  (1138) 
6.307

>  <gnina_score>  (1138) 
6.128

>  <ref_mols>  (1138) 
Z3094a

>  <HIPPO Compound ID>  (1138) 
198036

>  <distance_score>  (1138) 
0.982447

>  <rmsd(smina/fragmenstein)>  (1138) 
0.72

>  <ref_pdb>  (1138) 
Z3094a

>  <inspiration_score>  (1138) 
None

$$$$
P139652
     RDKit          3D

 31 35  0  0  0  0  0  0  0  0999 V2000
   -7.7569    1.5764   -8.8709 O   0  0  0  0  0  0  0  0  0  0  0  0
   -7.1695    2.2707   -9.5934 C   0  0  0  0  0  0  0  0  0  0  0  0
   -5.7866    2.0883  -10.2514 N   0  0  0  0  0  0  0  0  0  0  0  0
   -4.8879    0.9765  -10.2305 C   0  0  0  0  0  0  0  0  0  0  0  0
   -3.5087    1.5002  -10.4668 C   0  0  0  0  0  0  0  0  0  0  0  0
   -2.6922    2.1797   -9.5817 C   0  0  0  0  0  0  0  0  0  0  0  0
   -1.4443    2.5452  -10.1622 C   0  0  0  0  0  0  0  0  0  0  0  0
   -1.3488    2.1371  -11.4732 C   0  0  0  0  0  0  0  0  0  0  0  0
   -2.7558    1.3189  -11.9959 S   0  0  0  0  0  0  0  0  0  0  0  0
   -7.7628    3.5053  -10.1144 C   0  0  0  0  0  0  0  0  0  0  0  0
   -8.0552    3.4446  -11.4768 C   0  0  0  0  0  0  0  0  0  0  0  0
   -8.0636    4.6195  -12.1982 C   0  0  0  0  0  0  0  0  0  0  0  0
   -8.0401    4.5141  -13.5750 N   0  0  0  0  0  0  0  0  0  0  0  0
   -7.5907    5.5207  -14.6458 C   0  0  0  0  0  0  0  0  0  0  0  0
   -7.2412    6.6261  -14.5427 O   0  0  0  0  0  0  0  0  0  0  0  0
   -7.7246    4.9177  -15.9926 C   0  0  0  0  0  0  0  0  0  0  0  0
   -8.9136    4.2640  -16.3616 C   0  0  0  0  0  0  0  0  0  0  0  0
   -9.1264    3.8391  -17.6708 C   0  0  0  0  0  0  0  0  0  0  0  0
   -8.1540    4.0279  -18.6485 C   0  0  0  0  0  0  0  0  0  0  0  0
   -6.9728    4.6570  -18.2545 C   0  0  0  0  0  0  0  0  0  0  0  0
   -5.8540    5.0104  -18.9593 N   0  0  0  0  0  0  0  0  0  0  0  0
   -4.9708    5.5872  -18.0903 C   0  0  0  0  0  0  0  0  0  0  0  0
   -3.5491    6.1000  -18.4302 C   0  0  0  0  0  0  0  0  0  0  0  0
   -3.0241    6.0756  -19.8384 C   0  0  0  0  0  0  0  0  0  0  0  0
   -2.4962    5.0994  -18.8231 C   0  0  0  0  0  0  0  0  0  0  0  0
   -5.4761    5.6776  -16.8825 N   0  0  0  0  0  0  0  0  0  0  0  0
   -6.7241    5.1009  -16.9587 C   0  0  0  0  0  0  0  0  0  0  0  0
   -7.9605    5.8486  -11.5450 C   0  0  0  0  0  0  0  0  0  0  0  0
   -7.8286    5.8971  -10.1523 C   0  0  0  0  0  0  0  0  0  0  0  0
   -7.6940    4.7145   -9.4267 C   0  0  0  0  0  0  0  0  0  0  0  0
   -7.3267    4.8214   -7.7482 Cl  0  0  0  0  0  0  0  0  0  0  0  0
  1  2  2  0
  2  3  1  0
  3  4  1  0
  4  5  1  0
  5  6  2  0
  6  7  1  0
  7  8  2  0
  8  9  1  0
  2 10  1  0
 10 11  2  0
 11 12  1  0
 12 13  1  0
 13 14  1  0
 14 15  2  0
 14 16  1  0
 16 17  2  0
 17 18  1  0
 18 19  2  0
 19 20  1  0
 20 21  1  0
 21 22  1  0
 22 23  1  0
 23 24  1  0
 24 25  1  0
 22 26  2  0
 26 27  1  0
 12 28  2  0
 28 29  1  0
 29 30  2  0
 30 31  1  0
  9  5  1  0
 30 10  1  0
 27 16  1  0
 27 20  2  0
 25 23  1  0
M  END
>  <name>  (1139) 
P139652

>  <alias>  (1139) 
None

>  <smina_score_min>  (1139) 
-8.478

>  <exports>  (1139) 
['/opt/xchem-fragalysis-2/maxwin/BulkDock/OUTPUTS/openbind_xx01zvns2b_c2_elabs_1LOUTNY.sdf', '/opt/xchem-fragalysis-2/maxwin/BulkDock/OUTPUTS/openbind_xx01zvns2b_c2_elabs_1LSYIIV.sdf']

>  <tags>  (1139) 
syndirella_placed,openbind_xx01zvns2b_c2_elabs,openbind_xx01zvns2b_c2_elabs_scored_6.2plus,syndirella_product,openbind_xx01zvns2b_c2_elabs_scored,openbind_xx01zvns2b_c2_elabs_scored_top80percent,BulkDock Fragalysis export

>  <subsites>  (1139) 
1 - Z4590/B/203/1

>  <smiles>  (1139) 
O=C(NCc1cccs1)c1cc(NC(=O)c2cccc3[nH]c(C4CC4)nc23)ccc1Cl

>  <HIPPO Pose ID>  (1139) 
139652

>  <energy_score>  (1139) 
-16.884451

>  <inchikey>  (1139) 
VKWZQMLJHMYROF-UHFFFAOYSA-N

>  <gnina_score_min>  (1139) 
6.657

>  <gnina_score>  (1139) 
6.577

>  <ref_mols>  (1139) 
Z3094a

>  <HIPPO Compound ID>  (1139) 
198040

>  <distance_score>  (1139) 
1.034804

>  <rmsd(smina/fragmenstein)>  (1139) 
0.71

>  <ref_pdb>  (1139) 
Z3094a

>  <inspiration_score>  (1139) 
None

$$$$
P139654
     RDKit          3D

 31 34  0  0  0  0  0  0  0  0999 V2000
   -7.8675    5.0588   -7.9516 C   0  0  0  0  0  0  0  0  0  0  0  0
   -7.8784    4.9074   -9.4465 C   0  0  0  0  0  0  0  0  0  0  0  0
   -7.7974    6.0543  -10.2494 C   0  0  0  0  0  0  0  0  0  0  0  0
   -7.7164    5.9515  -11.6404 C   0  0  0  0  0  0  0  0  0  0  0  0
   -7.7628    4.7029  -12.2516 C   0  0  0  0  0  0  0  0  0  0  0  0
   -7.6445    4.5415  -13.6254 N   0  0  0  0  0  0  0  0  0  0  0  0
   -7.3470    5.4848  -14.6595 C   0  0  0  0  0  0  0  0  0  0  0  0
   -7.0460    6.6408  -14.6000 O   0  0  0  0  0  0  0  0  0  0  0  0
   -7.5535    4.9071  -16.0095 C   0  0  0  0  0  0  0  0  0  0  0  0
   -8.7774    4.2754  -16.3098 C   0  0  0  0  0  0  0  0  0  0  0  0
   -9.0767    3.8651  -17.6072 C   0  0  0  0  0  0  0  0  0  0  0  0
   -8.1644    4.0505  -18.6420 C   0  0  0  0  0  0  0  0  0  0  0  0
   -6.9581    4.6751  -18.3227 C   0  0  0  0  0  0  0  0  0  0  0  0
   -5.8927    5.0368  -19.1036 N   0  0  0  0  0  0  0  0  0  0  0  0
   -4.9539    5.6094  -18.2942 C   0  0  0  0  0  0  0  0  0  0  0  0
   -3.5703    6.1215  -18.7679 C   0  0  0  0  0  0  0  0  0  0  0  0
   -2.3617    5.7795  -17.9361 C   0  0  0  0  0  0  0  0  0  0  0  0
   -2.5524    5.1375  -19.2785 C   0  0  0  0  0  0  0  0  0  0  0  0
   -5.3710    5.6912  -17.0522 N   0  0  0  0  0  0  0  0  0  0  0  0
   -6.6206    5.1076  -17.0413 C   0  0  0  0  0  0  0  0  0  0  0  0
   -7.8970    3.5624  -11.4728 C   0  0  0  0  0  0  0  0  0  0  0  0
   -7.8885    3.6438  -10.0676 C   0  0  0  0  0  0  0  0  0  0  0  0
   -7.7143    2.3491   -9.3061 C   0  0  0  0  0  0  0  0  0  0  0  0
   -6.4882    1.7349   -9.7513 N   0  0  0  0  0  0  0  0  0  0  0  0
   -5.1479    2.1150   -9.5726 C   0  0  0  0  0  0  0  0  0  0  0  0
   -4.6660    3.0020   -8.9391 O   0  0  0  0  0  0  0  0  0  0  0  0
   -4.4160    1.2923  -10.3737 O   0  0  0  0  0  0  0  0  0  0  0  0
   -3.0348    1.6192  -10.6891 C   0  0  0  0  0  0  0  0  0  0  0  0
   -2.6276    0.6356  -11.7938 C   0  0  0  0  0  0  0  0  0  0  0  0
   -2.1278    1.4018   -9.4753 C   0  0  0  0  0  0  0  0  0  0  0  0
   -2.8926    3.0383  -11.2625 C   0  0  0  0  0  0  0  0  0  0  0  0
  1  2  1  0
  2  3  2  0
  3  4  1  0
  4  5  2  0
  5  6  1  0
  6  7  1  0
  7  8  2  0
  7  9  1  0
  9 10  2  0
 10 11  1  0
 11 12  2  0
 12 13  1  0
 13 14  1  0
 14 15  1  0
 15 16  1  0
 16 17  1  0
 17 18  1  0
 15 19  2  0
 19 20  1  0
  5 21  1  0
 21 22  2  0
 22 23  1  0
 23 24  1  0
 24 25  1  0
 25 26  2  0
 25 27  1  0
 27 28  1  0
 28 29  1  0
 28 30  1  0
 28 31  1  0
 22  2  1  0
 20  9  1  0
 20 13  2  0
 18 16  1  0
M  END
>  <name>  (1140) 
P139654

>  <alias>  (1140) 
None

>  <smina_score_min>  (1140) 
-8.338

>  <exports>  (1140) 
['/opt/xchem-fragalysis-2/maxwin/BulkDock/OUTPUTS/openbind_xx01zvns2b_c2_elabs_1LOUTNY.sdf', '/opt/xchem-fragalysis-2/maxwin/BulkDock/OUTPUTS/openbind_xx01zvns2b_c2_elabs_1LSYIIV.sdf']

>  <tags>  (1140) 
syndirella_placed,openbind_xx01zvns2b_c2_elabs,openbind_xx01zvns2b_c2_elabs_scored_6.2plus,syndirella_product,openbind_xx01zvns2b_c2_elabs_scored,openbind_xx01zvns2b_c2_elabs_scored_top80percent,BulkDock Fragalysis export

>  <subsites>  (1140) 
1 - Z4590/B/203/1

>  <smiles>  (1140) 
Cc1ccc(NC(=O)c2cccc3[nH]c(C4CC4)nc23)cc1CNC(=O)OC(C)(C)C

>  <HIPPO Pose ID>  (1140) 
139654

>  <energy_score>  (1140) 
-33.286702

>  <inchikey>  (1140) 
CKFMKVVUVLTYKN-UHFFFAOYSA-N

>  <gnina_score_min>  (1140) 
6.738

>  <gnina_score>  (1140) 
6.467

>  <ref_mols>  (1140) 
Z3094a

>  <HIPPO Compound ID>  (1140) 
198045

>  <distance_score>  (1140) 
0.9731

>  <rmsd(smina/fragmenstein)>  (1140) 
0.889

>  <ref_pdb>  (1140) 
Z3094a

>  <inspiration_score>  (1140) 
None

$$$$
P139657
     RDKit          3D

 31 35  0  0  0  0  0  0  0  0999 V2000
   -8.7164    5.7569   -8.3387 O   0  0  0  0  0  0  0  0  0  0  0  0
   -7.9606    4.8404   -8.1993 C   0  0  0  0  0  0  0  0  0  0  0  0
   -7.8469    3.8743   -7.1518 N   0  0  0  0  0  0  0  0  0  0  0  0
   -8.6663    3.6408   -5.9796 C   0  0  0  0  0  0  0  0  0  0  0  0
   -9.8990    2.7870   -6.3039 C   0  0  0  0  0  0  0  0  0  0  0  0
  -11.1121    3.1262   -5.4343 C   0  0  0  0  0  0  0  0  0  0  0  0
  -10.7076    3.4611   -4.0058 C   0  0  0  0  0  0  0  0  0  0  0  0
   -9.7632    4.6631   -3.9409 C   0  0  0  0  0  0  0  0  0  0  0  0
   -9.0320    4.9387   -5.2561 C   0  0  0  0  0  0  0  0  0  0  0  0
   -6.9205    4.7213   -9.2585 C   0  0  0  0  0  0  0  0  0  0  0  0
   -7.3398    4.7504  -10.6084 C   0  0  0  0  0  0  0  0  0  0  0  0
   -6.3963    4.7577  -11.6426 C   0  0  0  0  0  0  0  0  0  0  0  0
   -6.8057    4.8291  -12.9780 N   0  0  0  0  0  0  0  0  0  0  0  0
   -6.0512    4.7040  -14.2128 C   0  0  0  0  0  0  0  0  0  0  0  0
   -4.8733    4.5862  -14.3997 O   0  0  0  0  0  0  0  0  0  0  0  0
   -6.9062    4.6773  -15.4619 C   0  0  0  0  0  0  0  0  0  0  0  0
   -8.2366    4.2051  -15.4690 C   0  0  0  0  0  0  0  0  0  0  0  0
   -8.9724    4.0905  -16.6531 C   0  0  0  0  0  0  0  0  0  0  0  0
   -8.4158    4.3852  -17.8914 C   0  0  0  0  0  0  0  0  0  0  0  0
   -7.1151    4.8734  -17.8756 C   0  0  0  0  0  0  0  0  0  0  0  0
   -6.3129    5.2909  -18.9062 N   0  0  0  0  0  0  0  0  0  0  0  0
   -5.1175    5.6728  -18.3702 C   0  0  0  0  0  0  0  0  0  0  0  0
   -3.8889    6.1715  -19.1725 C   0  0  0  0  0  0  0  0  0  0  0  0
   -3.5703    5.5811  -20.5201 C   0  0  0  0  0  0  0  0  0  0  0  0
   -2.7212    5.2326  -19.3320 C   0  0  0  0  0  0  0  0  0  0  0  0
   -5.1249    5.5797  -17.0608 N   0  0  0  0  0  0  0  0  0  0  0  0
   -6.3517    5.0416  -16.7181 C   0  0  0  0  0  0  0  0  0  0  0  0
   -5.0403    4.7170  -11.3227 C   0  0  0  0  0  0  0  0  0  0  0  0
   -4.6217    4.7042   -9.9907 C   0  0  0  0  0  0  0  0  0  0  0  0
   -5.5548    4.7266   -8.9547 C   0  0  0  0  0  0  0  0  0  0  0  0
   -4.9295    4.8492   -7.3466 Cl  0  0  0  0  0  0  0  0  0  0  0  0
  1  2  2  0
  2  3  1  0
  3  4  1  0
  4  5  1  0
  5  6  1  0
  6  7  1  0
  7  8  1  0
  8  9  1  0
  2 10  1  0
 10 11  2  0
 11 12  1  0
 12 13  1  0
 13 14  1  0
 14 15  2  0
 14 16  1  0
 16 17  2  0
 17 18  1  0
 18 19  2  0
 19 20  1  0
 20 21  1  0
 21 22  1  0
 22 23  1  0
 23 24  1  0
 24 25  1  0
 22 26  2  0
 26 27  1  0
 12 28  2  0
 28 29  1  0
 29 30  2  0
 30 31  1  0
  9  4  1  0
 30 10  1  0
 27 16  1  0
 27 20  2  0
 25 23  1  0
M  END
>  <name>  (1141) 
P139657

>  <alias>  (1141) 
None

>  <smina_score_min>  (1141) 
-8.866

>  <exports>  (1141) 
['/opt/xchem-fragalysis-2/maxwin/BulkDock/OUTPUTS/openbind_xx01zvns2b_c2_elabs_1LOUTNY.sdf', '/opt/xchem-fragalysis-2/maxwin/BulkDock/OUTPUTS/openbind_xx01zvns2b_c2_elabs_1LSYIIV.sdf']

>  <tags>  (1141) 
syndirella_placed,openbind_xx01zvns2b_c2_elabs,openbind_xx01zvns2b_c2_elabs_scored_6.2plus,syndirella_product,openbind_xx01zvns2b_c2_elabs_scored,openbind_xx01zvns2b_c2_elabs_scored_top80percent,BulkDock Fragalysis export

>  <subsites>  (1141) 
1 - Z4590/B/203/1

>  <smiles>  (1141) 
O=C(NC1CCCCC1)c1cc(NC(=O)c2cccc3[nH]c(C4CC4)nc23)ccc1Cl

>  <HIPPO Pose ID>  (1141) 
139657

>  <energy_score>  (1141) 
-12.014065

>  <inchikey>  (1141) 
XVHSZMXGVINUTN-UHFFFAOYSA-N

>  <gnina_score_min>  (1141) 
6.371

>  <gnina_score>  (1141) 
6.22

>  <ref_mols>  (1141) 
Z3094a

>  <HIPPO Compound ID>  (1141) 
198053

>  <distance_score>  (1141) 
1.801977

>  <rmsd(smina/fragmenstein)>  (1141) 
1.132

>  <ref_pdb>  (1141) 
Z3094a

>  <inspiration_score>  (1141) 
None

$$$$
P139661
     RDKit          3D

 31 35  0  0  0  0  0  0  0  0999 V2000
   -6.4799    7.9524  -12.2604 C   0  0  0  0  0  0  0  0  0  0  0  0
   -7.7142    7.2604  -12.4617 O   0  0  0  0  0  0  0  0  0  0  0  0
   -7.8181    6.1924  -11.6095 C   0  0  0  0  0  0  0  0  0  0  0  0
   -8.0869    6.4919  -10.2825 C   0  0  0  0  0  0  0  0  0  0  0  0
   -8.4059    5.4750   -9.4003 C   0  0  0  0  0  0  0  0  0  0  0  0
   -8.4082    4.1275   -9.7812 C   0  0  0  0  0  0  0  0  0  0  0  0
   -8.7209    3.0136   -8.7832 C   0  0  0  0  0  0  0  0  0  0  0  0
   -9.0189    3.4788   -7.4138 N   0  0  0  0  0  0  0  0  0  0  0  0
   -7.8664    4.0637   -6.6895 C   0  0  0  0  0  0  0  0  0  0  0  0
   -7.8832    3.8951   -5.1511 C   0  0  0  0  0  0  0  0  0  0  0  0
   -9.2486    4.0382   -4.6351 N   0  0  0  0  0  0  0  0  0  0  0  0
   -9.2743    4.0418   -3.1824 C   0  0  0  0  0  0  0  0  0  0  0  0
  -10.0913    2.9606   -5.2126 C   0  0  0  0  0  0  0  0  0  0  0  0
   -9.6277    2.4199   -6.5971 C   0  0  0  0  0  0  0  0  0  0  0  0
   -8.1693    3.8376  -11.1405 C   0  0  0  0  0  0  0  0  0  0  0  0
   -7.8871    4.8657  -12.0647 C   0  0  0  0  0  0  0  0  0  0  0  0
   -7.7900    4.5362  -13.4233 N   0  0  0  0  0  0  0  0  0  0  0  0
   -7.2167    5.3454  -14.6189 C   0  0  0  0  0  0  0  0  0  0  0  0
   -6.6679    6.3780  -14.6415 O   0  0  0  0  0  0  0  0  0  0  0  0
   -7.5193    4.7211  -15.9272 C   0  0  0  0  0  0  0  0  0  0  0  0
   -8.7970    4.1974  -16.1928 C   0  0  0  0  0  0  0  0  0  0  0  0
   -9.1858    3.8729  -17.4938 C   0  0  0  0  0  0  0  0  0  0  0  0
   -8.3205    4.0503  -18.5704 C   0  0  0  0  0  0  0  0  0  0  0  0
   -7.0645    4.5835  -18.2861 C   0  0  0  0  0  0  0  0  0  0  0  0
   -6.0369    4.9727  -19.1052 N   0  0  0  0  0  0  0  0  0  0  0  0
   -5.0304    5.4554  -18.3168 C   0  0  0  0  0  0  0  0  0  0  0  0
   -3.6814    6.0382  -18.7989 C   0  0  0  0  0  0  0  0  0  0  0  0
   -2.4978    5.1127  -18.8872 C   0  0  0  0  0  0  0  0  0  0  0  0
   -3.1126    5.6731  -20.1395 C   0  0  0  0  0  0  0  0  0  0  0  0
   -5.3543    5.4197  -17.0477 N   0  0  0  0  0  0  0  0  0  0  0  0
   -6.6325    4.9064  -17.0030 C   0  0  0  0  0  0  0  0  0  0  0  0
  1  2  1  0
  2  3  1  0
  3  4  2  0
  4  5  1  0
  5  6  2  0
  6  7  1  0
  7  8  1  0
  8  9  1  0
  9 10  1  0
 10 11  1  0
 11 12  1  0
 11 13  1  0
 13 14  1  0
  6 15  1  0
 15 16  2  0
 16 17  1  0
 17 18  1  0
 18 19  2  0
 18 20  1  0
 20 21  2  0
 21 22  1  0
 22 23  2  0
 23 24  1  0
 24 25  1  0
 25 26  1  0
 26 27  1  0
 27 28  1  0
 28 29  1  0
 26 30  2  0
 30 31  1  0
 16  3  1  0
 31 20  1  0
 14  8  1  0
 31 24  2  0
 29 27  1  0
M  END
>  <name>  (1142) 
P139661

>  <alias>  (1142) 
None

>  <smina_score_min>  (1142) 
-8.276

>  <exports>  (1142) 
['/opt/xchem-fragalysis-2/maxwin/BulkDock/OUTPUTS/openbind_xx01zvns2b_c2_elabs_1LOUTNY.sdf', '/opt/xchem-fragalysis-2/maxwin/BulkDock/OUTPUTS/openbind_xx01zvns2b_c2_elabs_1LSYIIV.sdf']

>  <tags>  (1142) 
syndirella_placed,openbind_xx01zvns2b_c2_elabs,openbind_xx01zvns2b_c2_elabs_scored_6.2plus,syndirella_product,openbind_xx01zvns2b_c2_elabs_scored,openbind_xx01zvns2b_c2_elabs_scored_top80percent,BulkDock Fragalysis export

>  <subsites>  (1142) 
1 - Z4590/B/203/1

>  <smiles>  (1142) 
COc1ccc(CN2CCN(C)CC2)cc1NC(=O)c1cccc2[nH]c(C3CC3)nc12

>  <HIPPO Pose ID>  (1142) 
139661

>  <energy_score>  (1142) 
-42.967214

>  <inchikey>  (1142) 
VBXBAPQLBCIYNK-UHFFFAOYSA-N

>  <gnina_score_min>  (1142) 
6.529

>  <gnina_score>  (1142) 
6.375

>  <ref_mols>  (1142) 
Z3094a

>  <HIPPO Compound ID>  (1142) 
198065

>  <distance_score>  (1142) 
0.816449

>  <rmsd(smina/fragmenstein)>  (1142) 
0.509

>  <ref_pdb>  (1142) 
Z3094a

>  <inspiration_score>  (1142) 
None

$$$$
P139662
     RDKit          3D

 31 35  0  0  0  0  0  0  0  0999 V2000
   -9.6129    1.4463   -7.6906 C   0  0  0  0  0  0  0  0  0  0  0  0
   -9.0393    2.4611   -8.5101 N   0  0  0  0  0  0  0  0  0  0  0  0
   -8.8261    3.9473   -8.2441 C   0  0  0  0  0  0  0  0  0  0  0  0
   -9.1523    4.6072   -7.3426 O   0  0  0  0  0  0  0  0  0  0  0  0
   -8.1385    4.6620   -9.3692 C   0  0  0  0  0  0  0  0  0  0  0  0
   -7.5182    5.8460   -8.9746 C   0  0  0  0  0  0  0  0  0  0  0  0
   -7.0517    6.7385   -9.9181 C   0  0  0  0  0  0  0  0  0  0  0  0
   -7.1562    6.4687  -11.2888 C   0  0  0  0  0  0  0  0  0  0  0  0
   -6.8964    7.5211  -12.1741 N   0  0  0  0  0  0  0  0  0  0  0  0
   -5.5144    8.0296  -12.1895 C   0  0  0  0  0  0  0  0  0  0  0  0
   -5.3371    9.1434  -13.2252 C   0  0  0  0  0  0  0  0  0  0  0  0
   -6.2763   10.6614  -12.7929 S   0  0  0  0  0  0  0  0  0  0  0  0
   -7.6409    9.8904  -11.8461 C   0  0  0  0  0  0  0  0  0  0  0  0
   -7.9962    8.4836  -12.3304 C   0  0  0  0  0  0  0  0  0  0  0  0
   -7.6600    5.2109  -11.7093 C   0  0  0  0  0  0  0  0  0  0  0  0
   -7.6851    4.8019  -13.0662 N   0  0  0  0  0  0  0  0  0  0  0  0
   -6.9870    5.4154  -14.3245 C   0  0  0  0  0  0  0  0  0  0  0  0
   -6.2265    6.3028  -14.4135 O   0  0  0  0  0  0  0  0  0  0  0  0
   -7.4449    4.8316  -15.6241 C   0  0  0  0  0  0  0  0  0  0  0  0
   -8.7524    4.3575  -15.8229 C   0  0  0  0  0  0  0  0  0  0  0  0
   -9.2268    4.0394  -17.1024 C   0  0  0  0  0  0  0  0  0  0  0  0
   -8.4233    4.1620  -18.2336 C   0  0  0  0  0  0  0  0  0  0  0  0
   -7.1363    4.6472  -18.0235 C   0  0  0  0  0  0  0  0  0  0  0  0
   -6.1437    4.9812  -18.9101 N   0  0  0  0  0  0  0  0  0  0  0  0
   -5.0832    5.4563  -18.1925 C   0  0  0  0  0  0  0  0  0  0  0  0
   -3.7578    6.0173  -18.7615 C   0  0  0  0  0  0  0  0  0  0  0  0
   -2.5913    5.0794  -18.9159 C   0  0  0  0  0  0  0  0  0  0  0  0
   -3.2765    5.6377  -20.1321 C   0  0  0  0  0  0  0  0  0  0  0  0
   -5.3335    5.4471  -16.9066 N   0  0  0  0  0  0  0  0  0  0  0  0
   -6.6220    4.9706  -16.7687 C   0  0  0  0  0  0  0  0  0  0  0  0
   -8.1896    4.3259  -10.7385 C   0  0  0  0  0  0  0  0  0  0  0  0
  1  2  1  0
  2  3  1  0
  3  4  2  0
  3  5  1  0
  5  6  2  0
  6  7  1  0
  7  8  2  0
  8  9  1  0
  9 10  1  0
 10 11  1  0
 11 12  1  0
 12 13  1  0
 13 14  1  0
  8 15  1  0
 15 16  1  0
 16 17  1  0
 17 18  2  0
 17 19  1  0
 19 20  2  0
 20 21  1  0
 21 22  2  0
 22 23  1  0
 23 24  1  0
 24 25  1  0
 25 26  1  0
 26 27  1  0
 27 28  1  0
 25 29  2  0
 29 30  1  0
 15 31  2  0
 31  5  1  0
 14  9  1  0
 30 19  1  0
 30 23  2  0
 28 26  1  0
M  END
>  <name>  (1143) 
P139662

>  <alias>  (1143) 
None

>  <smina_score_min>  (1143) 
-8.106

>  <exports>  (1143) 
['/opt/xchem-fragalysis-2/maxwin/BulkDock/OUTPUTS/openbind_xx01zvns2b_c2_elabs_1LOUTNY.sdf', '/opt/xchem-fragalysis-2/maxwin/BulkDock/OUTPUTS/openbind_xx01zvns2b_c2_elabs_1LSYIIV.sdf']

>  <tags>  (1143) 
syndirella_placed,openbind_xx01zvns2b_c2_elabs,openbind_xx01zvns2b_c2_elabs_scored_6.2plus,syndirella_product,openbind_xx01zvns2b_c2_elabs_scored,openbind_xx01zvns2b_c2_elabs_scored_top80percent,BulkDock Fragalysis export

>  <subsites>  (1143) 
1 - Z4590/B/203/1

>  <smiles>  (1143) 
CNC(=O)c1ccc(N2CCSCC2)c(NC(=O)c2cccc3[nH]c(C4CC4)nc23)c1

>  <HIPPO Pose ID>  (1143) 
139662

>  <energy_score>  (1143) 
-22.634334

>  <inchikey>  (1143) 
SEXQPEQSFBZNOG-UHFFFAOYSA-N

>  <gnina_score_min>  (1143) 
6.548

>  <gnina_score>  (1143) 
6.422

>  <ref_mols>  (1143) 
Z3094a

>  <HIPPO Compound ID>  (1143) 
198066

>  <distance_score>  (1143) 
0.972003

>  <rmsd(smina/fragmenstein)>  (1143) 
1.028

>  <ref_pdb>  (1143) 
Z3094a

>  <inspiration_score>  (1143) 
None

$$$$
P139664
     RDKit          3D

 31 35  0  0  0  0  0  0  0  0999 V2000
   -6.3140    5.3253   -7.6926 O   0  0  0  0  0  0  0  0  0  0  0  0
   -7.1629    5.0962   -8.4568 C   0  0  0  0  0  0  0  0  0  0  0  0
   -8.3539    4.1316   -8.3629 N   0  0  0  0  0  0  0  0  0  0  0  0
   -8.7901    3.3476   -7.3183 C   0  0  0  0  0  0  0  0  0  0  0  0
   -9.6322    2.2776   -7.5790 C   0  0  0  0  0  0  0  0  0  0  0  0
  -10.2852    1.6720   -6.5177 C   0  0  0  0  0  0  0  0  0  0  0  0
  -10.1631    2.1820   -5.2333 C   0  0  0  0  0  0  0  0  0  0  0  0
   -9.2981    3.2371   -4.9689 C   0  0  0  0  0  0  0  0  0  0  0  0
   -8.5795    3.8010   -6.0129 C   0  0  0  0  0  0  0  0  0  0  0  0
   -7.2753    5.8539   -9.7102 C   0  0  0  0  0  0  0  0  0  0  0  0
   -7.7318    7.1450   -9.4270 C   0  0  0  0  0  0  0  0  0  0  0  0
   -8.2275    7.9374  -10.4373 C   0  0  0  0  0  0  0  0  0  0  0  0
   -8.2558    7.4440  -11.7336 C   0  0  0  0  0  0  0  0  0  0  0  0
   -8.9572    8.4751  -12.9222 Cl  0  0  0  0  0  0  0  0  0  0  0  0
   -7.7503    6.1702  -12.0412 C   0  0  0  0  0  0  0  0  0  0  0  0
   -7.7813    5.7392  -13.3664 N   0  0  0  0  0  0  0  0  0  0  0  0
   -6.9488    4.6620  -14.0884 C   0  0  0  0  0  0  0  0  0  0  0  0
   -6.1606    3.9130  -13.6723 O   0  0  0  0  0  0  0  0  0  0  0  0
   -7.3708    4.6009  -15.5109 C   0  0  0  0  0  0  0  0  0  0  0  0
   -8.6826    4.1950  -15.8145 C   0  0  0  0  0  0  0  0  0  0  0  0
   -9.1149    4.0655  -17.1352 C   0  0  0  0  0  0  0  0  0  0  0  0
   -8.2529    4.3221  -18.1986 C   0  0  0  0  0  0  0  0  0  0  0  0
   -6.9730    4.7718  -17.8720 C   0  0  0  0  0  0  0  0  0  0  0  0
   -5.9219    5.1496  -18.6632 N   0  0  0  0  0  0  0  0  0  0  0  0
   -4.9002    5.5435  -17.8452 C   0  0  0  0  0  0  0  0  0  0  0  0
   -3.5173    6.0701  -18.3060 C   0  0  0  0  0  0  0  0  0  0  0  0
   -2.4897    5.0744  -18.7711 C   0  0  0  0  0  0  0  0  0  0  0  0
   -3.1082    6.0304  -19.7530 C   0  0  0  0  0  0  0  0  0  0  0  0
   -5.2305    5.4470  -16.5768 N   0  0  0  0  0  0  0  0  0  0  0  0
   -6.5068    4.9290  -16.5656 C   0  0  0  0  0  0  0  0  0  0  0  0
   -7.2768    5.3428  -11.0116 C   0  0  0  0  0  0  0  0  0  0  0  0
  1  2  2  0
  2  3  1  0
  3  4  1  0
  4  5  2  0
  5  6  1  0
  6  7  2  0
  7  8  1  0
  8  9  2  0
  2 10  1  0
 10 11  2  0
 11 12  1  0
 12 13  2  0
 13 14  1  0
 13 15  1  0
 15 16  1  0
 16 17  1  0
 17 18  2  0
 17 19  1  0
 19 20  2  0
 20 21  1  0
 21 22  2  0
 22 23  1  0
 23 24  1  0
 24 25  1  0
 25 26  1  0
 26 27  1  0
 27 28  1  0
 25 29  2  0
 29 30  1  0
 15 31  2  0
  9  4  1  0
 31 10  1  0
 30 19  1  0
 30 23  2  0
 28 26  1  0
M  END
>  <name>  (1144) 
P139664

>  <alias>  (1144) 
None

>  <smina_score_min>  (1144) 
-9.261

>  <exports>  (1144) 
['/opt/xchem-fragalysis-2/maxwin/BulkDock/OUTPUTS/openbind_xx01zvns2b_c2_elabs_1LOUTNY.sdf', '/opt/xchem-fragalysis-2/maxwin/BulkDock/OUTPUTS/openbind_xx01zvns2b_c2_elabs_1LSYIIV.sdf']

>  <tags>  (1144) 
syndirella_placed,openbind_xx01zvns2b_c2_elabs,openbind_xx01zvns2b_c2_elabs_scored_6.2plus,syndirella_product,openbind_xx01zvns2b_c2_elabs_scored,openbind_xx01zvns2b_c2_elabs_scored_top80percent,BulkDock Fragalysis export

>  <subsites>  (1144) 
1 - Z4590/B/203/1

>  <smiles>  (1144) 
O=C(Nc1ccccc1)c1ccc(Cl)c(NC(=O)c2cccc3[nH]c(C4CC4)nc23)c1

>  <HIPPO Pose ID>  (1144) 
139664

>  <energy_score>  (1144) 
-8.294364

>  <inchikey>  (1144) 
WMQNDZOZHJJMSP-UHFFFAOYSA-N

>  <gnina_score_min>  (1144) 
6.415

>  <gnina_score>  (1144) 
6.262

>  <ref_mols>  (1144) 
Z3094a

>  <HIPPO Compound ID>  (1144) 
198069

>  <distance_score>  (1144) 
1.644627

>  <rmsd(smina/fragmenstein)>  (1144) 
0.613

>  <ref_pdb>  (1144) 
Z3094a

>  <inspiration_score>  (1144) 
None

$$$$
P139666
     RDKit          3D

 31 34  0  0  0  0  0  0  0  0999 V2000
   -7.1346    7.7140   -9.6980 C   0  0  0  0  0  0  0  0  0  0  0  0
   -7.4331    6.3334  -10.2002 C   0  0  0  0  0  0  0  0  0  0  0  0
   -7.9018    5.3480   -9.3297 C   0  0  0  0  0  0  0  0  0  0  0  0
   -8.2152    4.0519   -9.7785 C   0  0  0  0  0  0  0  0  0  0  0  0
   -8.7399    2.9955   -8.8184 C   0  0  0  0  0  0  0  0  0  0  0  0
   -8.2821    3.2029   -7.4676 N   0  0  0  0  0  0  0  0  0  0  0  0
   -8.8195    3.9656   -6.4173 C   0  0  0  0  0  0  0  0  0  0  0  0
   -9.8378    4.5799   -6.3409 O   0  0  0  0  0  0  0  0  0  0  0  0
   -7.8736    3.9762   -5.4345 O   0  0  0  0  0  0  0  0  0  0  0  0
   -8.0391    4.8042   -4.2545 C   0  0  0  0  0  0  0  0  0  0  0  0
   -6.6793    4.7404   -3.5429 C   0  0  0  0  0  0  0  0  0  0  0  0
   -9.1148    4.2233   -3.3359 C   0  0  0  0  0  0  0  0  0  0  0  0
   -8.3153    6.2765   -4.5967 C   0  0  0  0  0  0  0  0  0  0  0  0
   -8.1015    3.7790  -11.1576 C   0  0  0  0  0  0  0  0  0  0  0  0
   -7.6562    4.7683  -12.0466 C   0  0  0  0  0  0  0  0  0  0  0  0
   -7.6061    4.5174  -13.4215 N   0  0  0  0  0  0  0  0  0  0  0  0
   -7.1886    5.3554  -14.5229 C   0  0  0  0  0  0  0  0  0  0  0  0
   -6.7041    6.4520  -14.5323 O   0  0  0  0  0  0  0  0  0  0  0  0
   -7.5107    4.7870  -15.8592 C   0  0  0  0  0  0  0  0  0  0  0  0
   -8.7947    4.2597  -16.0975 C   0  0  0  0  0  0  0  0  0  0  0  0
   -9.2189    3.9363  -17.3870 C   0  0  0  0  0  0  0  0  0  0  0  0
   -8.3801    4.1059  -18.4831 C   0  0  0  0  0  0  0  0  0  0  0  0
   -7.1176    4.6388  -18.2305 C   0  0  0  0  0  0  0  0  0  0  0  0
   -6.1143    5.0101  -19.0859 N   0  0  0  0  0  0  0  0  0  0  0  0
   -5.0794    5.4928  -18.3368 C   0  0  0  0  0  0  0  0  0  0  0  0
   -3.7407    6.0419  -18.8950 C   0  0  0  0  0  0  0  0  0  0  0  0
   -2.5452    5.1273  -18.9241 C   0  0  0  0  0  0  0  0  0  0  0  0
   -3.1957    5.5500  -20.2092 C   0  0  0  0  0  0  0  0  0  0  0  0
   -5.3700    5.4883  -17.0560 N   0  0  0  0  0  0  0  0  0  0  0  0
   -6.6499    4.9760  -16.9609 C   0  0  0  0  0  0  0  0  0  0  0  0
   -7.3180    6.0328  -11.5575 C   0  0  0  0  0  0  0  0  0  0  0  0
  1  2  1  0
  2  3  2  0
  3  4  1  0
  4  5  1  0
  5  6  1  0
  6  7  1  0
  7  8  2  0
  7  9  1  0
  9 10  1  0
 10 11  1  0
 10 12  1  0
 10 13  1  0
  4 14  2  0
 14 15  1  0
 15 16  1  0
 16 17  1  0
 17 18  2  0
 17 19  1  0
 19 20  2  0
 20 21  1  0
 21 22  2  0
 22 23  1  0
 23 24  1  0
 24 25  1  0
 25 26  1  0
 26 27  1  0
 27 28  1  0
 25 29  2  0
 29 30  1  0
 15 31  2  0
 31  2  1  0
 30 19  1  0
 30 23  2  0
 28 26  1  0
M  END
>  <name>  (1145) 
P139666

>  <alias>  (1145) 
None

>  <smina_score_min>  (1145) 
-9.032

>  <exports>  (1145) 
['/opt/xchem-fragalysis-2/maxwin/BulkDock/OUTPUTS/openbind_xx01zvns2b_c2_elabs_1LOUTNY.sdf', '/opt/xchem-fragalysis-2/maxwin/BulkDock/OUTPUTS/openbind_xx01zvns2b_c2_elabs_1LSYIIV.sdf']

>  <tags>  (1145) 
syndirella_placed,openbind_xx01zvns2b_c2_elabs,openbind_xx01zvns2b_c2_elabs_scored_6.2plus,syndirella_product,openbind_xx01zvns2b_c2_elabs_scored,openbind_xx01zvns2b_c2_elabs_scored_top80percent,BulkDock Fragalysis export

>  <subsites>  (1145) 
1 - Z4590/B/203/1

>  <smiles>  (1145) 
Cc1cc(CNC(=O)OC(C)(C)C)cc(NC(=O)c2cccc3[nH]c(C4CC4)nc23)c1

>  <HIPPO Pose ID>  (1145) 
139666

>  <energy_score>  (1145) 
-50.413184

>  <inchikey>  (1145) 
RBKOMZIMHXQVAB-UHFFFAOYSA-N

>  <gnina_score_min>  (1145) 
6.293

>  <gnina_score>  (1145) 
6.128

>  <ref_mols>  (1145) 
Z3094a

>  <HIPPO Compound ID>  (1145) 
198073

>  <distance_score>  (1145) 
0.795833

>  <rmsd(smina/fragmenstein)>  (1145) 
0.828

>  <ref_pdb>  (1145) 
Z3094a

>  <inspiration_score>  (1145) 
None

$$$$
P139667
     RDKit          3D

 31 35  0  0  0  0  0  0  0  0999 V2000
   -6.6359    5.7046   -7.8234 O   0  0  0  0  0  0  0  0  0  0  0  0
   -7.3930    5.3087   -8.6160 C   0  0  0  0  0  0  0  0  0  0  0  0
   -8.4342    4.1830   -8.5241 N   0  0  0  0  0  0  0  0  0  0  0  0
   -8.8167    3.3999   -7.4530 C   0  0  0  0  0  0  0  0  0  0  0  0
   -9.5570    2.2470   -7.6852 C   0  0  0  0  0  0  0  0  0  0  0  0
  -10.1595    1.6048   -6.6109 C   0  0  0  0  0  0  0  0  0  0  0  0
  -10.0822    2.1490   -5.3358 C   0  0  0  0  0  0  0  0  0  0  0  0
   -9.3073    3.2757   -5.1108 C   0  0  0  0  0  0  0  0  0  0  0  0
   -9.2192    3.7876   -3.8742 F   0  0  0  0  0  0  0  0  0  0  0  0
   -8.6466    3.8940   -6.1579 C   0  0  0  0  0  0  0  0  0  0  0  0
   -7.5161    5.9907   -9.9154 C   0  0  0  0  0  0  0  0  0  0  0  0
   -7.9782    7.3001   -9.7465 C   0  0  0  0  0  0  0  0  0  0  0  0
   -8.3873    8.0381  -10.8385 C   0  0  0  0  0  0  0  0  0  0  0  0
   -8.3420    7.4654  -12.1002 C   0  0  0  0  0  0  0  0  0  0  0  0
   -7.8525    6.1706  -12.2769 C   0  0  0  0  0  0  0  0  0  0  0  0
   -7.8441    5.6958  -13.5781 N   0  0  0  0  0  0  0  0  0  0  0  0
   -6.9751    4.6151  -14.2412 C   0  0  0  0  0  0  0  0  0  0  0  0
   -6.1819    3.8993  -13.7822 O   0  0  0  0  0  0  0  0  0  0  0  0
   -7.3807    4.5169  -15.6644 C   0  0  0  0  0  0  0  0  0  0  0  0
   -8.6908    4.1048  -15.9695 C   0  0  0  0  0  0  0  0  0  0  0  0
   -9.1250    3.9920  -17.2891 C   0  0  0  0  0  0  0  0  0  0  0  0
   -8.2669    4.2763  -18.3473 C   0  0  0  0  0  0  0  0  0  0  0  0
   -6.9916    4.7383  -18.0188 C   0  0  0  0  0  0  0  0  0  0  0  0
   -5.9527    5.1572  -18.8056 N   0  0  0  0  0  0  0  0  0  0  0  0
   -4.9317    5.5419  -17.9821 C   0  0  0  0  0  0  0  0  0  0  0  0
   -3.5590    6.0982  -18.4348 C   0  0  0  0  0  0  0  0  0  0  0  0
   -3.0924    5.9570  -19.8571 C   0  0  0  0  0  0  0  0  0  0  0  0
   -2.4706    5.1168  -18.7766 C   0  0  0  0  0  0  0  0  0  0  0  0
   -5.2542    5.4094  -16.7155 N   0  0  0  0  0  0  0  0  0  0  0  0
   -6.5224    4.8748  -16.7120 C   0  0  0  0  0  0  0  0  0  0  0  0
   -7.4429    5.4024  -11.1811 C   0  0  0  0  0  0  0  0  0  0  0  0
  1  2  2  0
  2  3  1  0
  3  4  1  0
  4  5  2  0
  5  6  1  0
  6  7  2  0
  7  8  1  0
  8  9  1  0
  8 10  2  0
  2 11  1  0
 11 12  2  0
 12 13  1  0
 13 14  2  0
 14 15  1  0
 15 16  1  0
 16 17  1  0
 17 18  2  0
 17 19  1  0
 19 20  2  0
 20 21  1  0
 21 22  2  0
 22 23  1  0
 23 24  1  0
 24 25  1  0
 25 26  1  0
 26 27  1  0
 27 28  1  0
 25 29  2  0
 29 30  1  0
 15 31  2  0
 10  4  1  0
 31 11  1  0
 30 19  1  0
 30 23  2  0
 28 26  1  0
M  END
>  <name>  (1146) 
P139667

>  <alias>  (1146) 
None

>  <smina_score_min>  (1146) 
-9.206

>  <exports>  (1146) 
['/opt/xchem-fragalysis-2/maxwin/BulkDock/OUTPUTS/openbind_xx01zvns2b_c2_elabs_1LOUTNY.sdf', '/opt/xchem-fragalysis-2/maxwin/BulkDock/OUTPUTS/openbind_xx01zvns2b_c2_elabs_1LSYIIV.sdf']

>  <tags>  (1146) 
syndirella_placed,openbind_xx01zvns2b_c2_elabs,openbind_xx01zvns2b_c2_elabs_scored_6.2plus,syndirella_product,openbind_xx01zvns2b_c2_elabs_scored,openbind_xx01zvns2b_c2_elabs_scored_top80percent,BulkDock Fragalysis export

>  <subsites>  (1146) 
1 - Z4590/B/203/1

>  <smiles>  (1146) 
O=C(Nc1cccc(F)c1)c1cccc(NC(=O)c2cccc3[nH]c(C4CC4)nc23)c1

>  <HIPPO Pose ID>  (1146) 
139667

>  <energy_score>  (1146) 
-16.628041

>  <inchikey>  (1146) 
YHXDABWBGAMPKI-UHFFFAOYSA-N

>  <gnina_score_min>  (1146) 
6.256

>  <gnina_score>  (1146) 
6.127

>  <ref_mols>  (1146) 
Z3094a

>  <HIPPO Compound ID>  (1146) 
198078

>  <distance_score>  (1146) 
1.676177

>  <rmsd(smina/fragmenstein)>  (1146) 
0.635

>  <ref_pdb>  (1146) 
Z3094a

>  <inspiration_score>  (1146) 
None

$$$$
P139671
     RDKit          3D

 32 36  0  0  0  0  0  0  0  0999 V2000
   -8.4345    6.5008   -4.0771 C   0  0  0  0  0  0  0  0  0  0  0  0
   -8.0839    5.0230   -3.8552 C   0  0  0  0  0  0  0  0  0  0  0  0
   -9.1586    4.2954   -3.0471 C   0  0  0  0  0  0  0  0  0  0  0  0
   -6.7527    4.9661   -3.0902 C   0  0  0  0  0  0  0  0  0  0  0  0
   -7.8267    4.3109   -5.0920 O   0  0  0  0  0  0  0  0  0  0  0  0
   -8.7277    4.3354   -6.1164 C   0  0  0  0  0  0  0  0  0  0  0  0
   -9.7305    4.9203   -6.1002 O   0  0  0  0  0  0  0  0  0  0  0  0
   -8.0644    3.5407   -7.2354 N   0  0  0  0  0  0  0  0  0  0  0  0
   -8.5298    3.2147   -8.5402 C   0  0  0  0  0  0  0  0  0  0  0  0
   -8.2462    4.2732   -9.6188 C   0  0  0  0  0  0  0  0  0  0  0  0
   -8.0191    5.6108   -9.2445 C   0  0  0  0  0  0  0  0  0  0  0  0
   -7.6855    6.5945  -10.1682 C   0  0  0  0  0  0  0  0  0  0  0  0
   -7.5709    6.2676  -11.5106 C   0  0  0  0  0  0  0  0  0  0  0  0
   -7.8214    4.9684  -11.9399 C   0  0  0  0  0  0  0  0  0  0  0  0
   -7.7252    4.6618  -13.2954 N   0  0  0  0  0  0  0  0  0  0  0  0
   -7.2614    5.5291  -14.4925 C   0  0  0  0  0  0  0  0  0  0  0  0
   -6.8156    6.6089  -14.5173 O   0  0  0  0  0  0  0  0  0  0  0  0
   -7.5376    4.8753  -15.7961 C   0  0  0  0  0  0  0  0  0  0  0  0
   -8.7950    4.3065  -16.0593 C   0  0  0  0  0  0  0  0  0  0  0  0
   -9.1607    3.9377  -17.3565 C   0  0  0  0  0  0  0  0  0  0  0  0
   -8.2857    4.0982  -18.4291 C   0  0  0  0  0  0  0  0  0  0  0  0
   -7.0401    4.6533  -18.1419 C   0  0  0  0  0  0  0  0  0  0  0  0
   -5.9976    5.0101  -18.9563 N   0  0  0  0  0  0  0  0  0  0  0  0
   -5.0073    5.5278  -18.1696 C   0  0  0  0  0  0  0  0  0  0  0  0
   -3.6412    6.0750  -18.6497 C   0  0  0  0  0  0  0  0  0  0  0  0
   -3.1331    5.7999  -20.0363 C   0  0  0  0  0  0  0  0  0  0  0  0
   -2.5133    5.1010  -18.8582 C   0  0  0  0  0  0  0  0  0  0  0  0
   -5.3614    5.5557  -16.9071 N   0  0  0  0  0  0  0  0  0  0  0  0
   -6.6354    5.0330  -16.8642 C   0  0  0  0  0  0  0  0  0  0  0  0
   -8.1757    3.9892  -11.0071 C   0  0  0  0  0  0  0  0  0  0  0  0
   -9.7164    2.3024   -8.7177 C   0  0  0  0  0  0  0  0  0  0  0  0
   -8.3414    1.7609   -8.9066 C   0  0  0  0  0  0  0  0  0  0  0  0
  1  2  1  0
  2  3  1  0
  2  4  1  0
  2  5  1  0
  5  6  1  0
  6  7  2  0
  6  8  1  0
  8  9  1  0
  9 10  1  0
 10 11  2  0
 11 12  1  0
 12 13  2  0
 13 14  1  0
 14 15  1  0
 15 16  1  0
 16 17  2  0
 16 18  1  0
 18 19  2  0
 19 20  1  0
 20 21  2  0
 21 22  1  0
 22 23  1  0
 23 24  1  0
 24 25  1  0
 25 26  1  0
 26 27  1  0
 24 28  2  0
 28 29  1  0
 14 30  2  0
  9 31  1  0
 31 32  1  0
 32  9  1  0
 30 10  1  0
 29 18  1  0
 29 22  2  0
 27 25  1  0
M  END
>  <name>  (1147) 
P139671

>  <alias>  (1147) 
None

>  <smina_score_min>  (1147) 
-8.64

>  <exports>  (1147) 
['/opt/xchem-fragalysis-2/maxwin/BulkDock/OUTPUTS/openbind_xx01zvns2b_c2_elabs_1LOUTNY.sdf', '/opt/xchem-fragalysis-2/maxwin/BulkDock/OUTPUTS/openbind_xx01zvns2b_c2_elabs_1LSYIIV.sdf']

>  <tags>  (1147) 
syndirella_placed,openbind_xx01zvns2b_c2_elabs,openbind_xx01zvns2b_c2_elabs_scored_6.2plus,syndirella_product,openbind_xx01zvns2b_c2_elabs_scored,openbind_xx01zvns2b_c2_elabs_scored_top80percent,BulkDock Fragalysis export

>  <subsites>  (1147) 
1 - Z4590/B/203/1

>  <smiles>  (1147) 
CC(C)(C)OC(=O)NC1(c2cccc(NC(=O)c3cccc4[nH]c(C5CC5)nc34)c2)CC1

>  <HIPPO Pose ID>  (1147) 
139671

>  <energy_score>  (1147) 
-38.407

>  <inchikey>  (1147) 
BBIMCBNOKNNBOV-UHFFFAOYSA-N

>  <gnina_score_min>  (1147) 
6.315

>  <gnina_score>  (1147) 
6.16

>  <ref_mols>  (1147) 
Z3094a

>  <HIPPO Compound ID>  (1147) 
198085

>  <distance_score>  (1147) 
0.878584

>  <rmsd(smina/fragmenstein)>  (1147) 
0.824

>  <ref_pdb>  (1147) 
Z3094a

>  <inspiration_score>  (1147) 
None

$$$$
P139674
     RDKit          3D

 32 37  0  0  0  0  0  0  0  0999 V2000
   -8.3708    4.2464   -2.8110 O   0  0  0  0  0  0  0  0  0  0  0  0
   -8.7353    3.8129   -3.8941 C   0  0  0  0  0  0  0  0  0  0  0  0
   -7.8374    3.4489   -5.0346 C   0  0  0  0  0  0  0  0  0  0  0  0
   -8.7855    2.8586   -6.0909 C   0  0  2  0  0  0  0  0  0  0  0  0
   -8.6141    3.3722   -7.4467 N   0  0  0  0  0  0  0  0  0  0  0  0
   -8.7641    2.5397   -8.6411 C   0  0  0  0  0  0  0  0  0  0  0  0
   -8.4402    3.5069   -9.7429 C   0  0  0  0  0  0  0  0  0  0  0  0
   -8.3225    3.3203  -11.1159 C   0  0  0  0  0  0  0  0  0  0  0  0
   -7.9651    4.4238  -11.9118 C   0  0  0  0  0  0  0  0  0  0  0  0
   -7.8388    4.2823  -13.2950 N   0  0  0  0  0  0  0  0  0  0  0  0
   -7.4137    5.3106  -14.3797 C   0  0  0  0  0  0  0  0  0  0  0  0
   -7.0303    6.4103  -14.2723 O   0  0  0  0  0  0  0  0  0  0  0  0
   -7.6253    4.7824  -15.7495 C   0  0  0  0  0  0  0  0  0  0  0  0
   -8.8621    4.2188  -16.1027 C   0  0  0  0  0  0  0  0  0  0  0  0
   -9.1613    3.9011  -17.4287 C   0  0  0  0  0  0  0  0  0  0  0  0
   -8.2325    4.1084  -18.4448 C   0  0  0  0  0  0  0  0  0  0  0  0
   -7.0098    4.6649  -18.0724 C   0  0  0  0  0  0  0  0  0  0  0  0
   -5.9210    5.0330  -18.8167 N   0  0  0  0  0  0  0  0  0  0  0  0
   -4.9789    5.5388  -17.9661 C   0  0  0  0  0  0  0  0  0  0  0  0
   -3.5785    6.0726  -18.3607 C   0  0  0  0  0  0  0  0  0  0  0  0
   -3.1074    6.0558  -19.7886 C   0  0  0  0  0  0  0  0  0  0  0  0
   -2.5269    5.0878  -18.7947 C   0  0  0  0  0  0  0  0  0  0  0  0
   -5.4076    5.5469  -16.7251 N   0  0  0  0  0  0  0  0  0  0  0  0
   -6.6755    5.0064  -16.7630 C   0  0  0  0  0  0  0  0  0  0  0  0
   -7.7459    5.6861  -11.3247 C   0  0  0  0  0  0  0  0  0  0  0  0
   -7.8891    5.8757   -9.9524 C   0  0  0  0  0  0  0  0  0  0  0  0
   -8.2345    4.7746   -9.1990 C   0  0  0  0  0  0  0  0  0  0  0  0
   -8.4212    4.7021   -7.7516 C   0  0  0  0  0  0  0  0  0  0  0  0
   -8.4001    5.6573   -6.9987 O   0  0  0  0  0  0  0  0  0  0  0  0
  -10.1569    3.1513   -5.5181 C   0  0  0  0  0  0  0  0  0  0  0  0
  -11.2316    3.0184   -6.0780 O   0  0  0  0  0  0  0  0  0  0  0  0
  -10.0212    3.5987   -4.2470 N   0  0  0  0  0  0  0  0  0  0  0  0
  1  2  2  0
  2  3  1  0
  3  4  1  0
  4  5  1  6
  5  6  1  0
  6  7  1  0
  7  8  2  0
  8  9  1  0
  9 10  1  0
 10 11  1  0
 11 12  2  0
 11 13  1  0
 13 14  2  0
 14 15  1  0
 15 16  2  0
 16 17  1  0
 17 18  1  0
 18 19  1  0
 19 20  1  0
 20 21  1  0
 21 22  1  0
 19 23  2  0
 23 24  1  0
  9 25  2  0
 25 26  1  0
 26 27  2  0
 27 28  1  0
 28 29  2  0
  4 30  1  0
 30 31  2  0
 30 32  1  0
 32  2  1  0
 28  5  1  0
 27  7  1  0
 24 13  1  0
 24 17  2  0
 22 20  1  0
M  END
>  <name>  (1148) 
P139674

>  <alias>  (1148) 
None

>  <smina_score_min>  (1148) 
-9.625

>  <exports>  (1148) 
['/opt/xchem-fragalysis-2/maxwin/BulkDock/OUTPUTS/openbind_xx01zvns2b_c2_elabs_1LOUTNY.sdf', '/opt/xchem-fragalysis-2/maxwin/BulkDock/OUTPUTS/openbind_xx01zvns2b_c2_elabs_1LSYIIV.sdf']

>  <tags>  (1148) 
syndirella_placed,openbind_xx01zvns2b_c2_elabs,openbind_xx01zvns2b_c2_elabs_scored_6.2plus,syndirella_product,openbind_xx01zvns2b_c2_elabs_scored,openbind_xx01zvns2b_c2_elabs_scored_top80percent,BulkDock Fragalysis export

>  <subsites>  (1148) 
1 - Z4590/B/203/1

>  <smiles>  (1148) 
O=C1C[C@H](N2Cc3cc(NC(=O)c4cccc5[nH]c(C6CC6)nc45)ccc3C2=O)C(=O)N1

>  <HIPPO Pose ID>  (1148) 
139674

>  <energy_score>  (1148) 
-26.927632

>  <inchikey>  (1148) 
QSTYRDPYNCYGAT-KRWDZBQOSA-N

>  <gnina_score_min>  (1148) 
6.26

>  <gnina_score>  (1148) 
6.111

>  <ref_mols>  (1148) 
Z3094a

>  <HIPPO Compound ID>  (1148) 
198089

>  <distance_score>  (1148) 
0.608348

>  <rmsd(smina/fragmenstein)>  (1148) 
0.591

>  <ref_pdb>  (1148) 
Z3094a

>  <inspiration_score>  (1148) 
None

$$$$
P139679
     RDKit          3D

 32 36  0  0  0  0  0  0  0  0999 V2000
   -5.0348    6.9758  -12.4334 C   0  0  0  0  0  0  0  0  0  0  0  0
   -6.4515    7.1431  -12.3596 O   0  0  0  0  0  0  0  0  0  0  0  0
   -7.0273    6.0338  -11.8120 C   0  0  0  0  0  0  0  0  0  0  0  0
   -7.4150    6.1505  -10.4740 C   0  0  0  0  0  0  0  0  0  0  0  0
   -8.0882    5.1067   -9.8464 C   0  0  0  0  0  0  0  0  0  0  0  0
   -8.3224    3.9212  -10.5516 C   0  0  0  0  0  0  0  0  0  0  0  0
   -9.0800    2.7516  -10.0533 C   0  0  0  0  0  0  0  0  0  0  0  0
   -9.5510    2.0171  -10.8167 O   0  0  0  0  0  0  0  0  0  0  0  0
   -9.0505    2.7115   -8.5411 N   0  0  0  0  0  0  0  0  0  0  0  0
   -9.6272    1.8773   -7.6909 C   0  0  0  0  0  0  0  0  0  0  0  0
  -10.1112    0.7003   -7.9508 N   0  0  0  0  0  0  0  0  0  0  0  0
  -10.4125    0.0930   -6.7517 C   0  0  0  0  0  0  0  0  0  0  0  0
  -10.7257   -1.4658   -6.7659 C   0  0  0  0  0  0  0  0  0  0  0  0
  -10.4285    1.0044   -5.6969 C   0  0  0  0  0  0  0  0  0  0  0  0
   -9.7364    2.4966   -6.1320 S   0  0  0  0  0  0  0  0  0  0  0  0
   -7.9174    3.8056  -11.8682 C   0  0  0  0  0  0  0  0  0  0  0  0
   -7.3355    4.8754  -12.5264 C   0  0  0  0  0  0  0  0  0  0  0  0
   -7.3346    4.6779  -13.8944 N   0  0  0  0  0  0  0  0  0  0  0  0
   -6.9050    5.6044  -15.0323 C   0  0  0  0  0  0  0  0  0  0  0  0
   -6.4100    6.6549  -15.0025 O   0  0  0  0  0  0  0  0  0  0  0  0
   -7.3295    4.9757  -16.2983 C   0  0  0  0  0  0  0  0  0  0  0  0
   -8.6381    4.4480  -16.4199 C   0  0  0  0  0  0  0  0  0  0  0  0
   -9.1122    3.9820  -17.6410 C   0  0  0  0  0  0  0  0  0  0  0  0
   -8.3059    4.0369  -18.7723 C   0  0  0  0  0  0  0  0  0  0  0  0
   -7.0237    4.5700  -18.6223 C   0  0  0  0  0  0  0  0  0  0  0  0
   -6.0370    4.8354  -19.5318 N   0  0  0  0  0  0  0  0  0  0  0  0
   -4.9432    5.2821  -18.8456 C   0  0  0  0  0  0  0  0  0  0  0  0
   -3.5534    5.5496  -19.4736 C   0  0  0  0  0  0  0  0  0  0  0  0
   -2.3336    5.3843  -18.6062 C   0  0  0  0  0  0  0  0  0  0  0  0
   -2.7755    6.7565  -19.0381 C   0  0  0  0  0  0  0  0  0  0  0  0
   -5.2056    5.4408  -17.5700 N   0  0  0  0  0  0  0  0  0  0  0  0
   -6.5022    5.0185  -17.4159 C   0  0  0  0  0  0  0  0  0  0  0  0
  1  2  1  0
  2  3  1  0
  3  4  2  0
  4  5  1  0
  5  6  2  0
  6  7  1  0
  7  8  2  0
  7  9  1  0
  9 10  1  0
 10 11  2  0
 11 12  1  0
 12 13  1  0
 12 14  2  0
 14 15  1  0
  6 16  1  0
 16 17  2  0
 17 18  1  0
 18 19  1  0
 19 20  2  0
 19 21  1  0
 21 22  2  0
 22 23  1  0
 23 24  2  0
 24 25  1  0
 25 26  1  0
 26 27  1  0
 27 28  1  0
 28 29  1  0
 29 30  1  0
 27 31  2  0
 31 32  1  0
 17  3  1  0
 32 21  1  0
 15 10  1  0
 32 25  2  0
 30 28  1  0
M  END
>  <name>  (1149) 
P139679

>  <alias>  (1149) 
None

>  <smina_score_min>  (1149) 
-7.853

>  <exports>  (1149) 
['/opt/xchem-fragalysis-2/maxwin/BulkDock/OUTPUTS/openbind_xx01zvns2b_c2_elabs_1LOUTNY.sdf', '/opt/xchem-fragalysis-2/maxwin/BulkDock/OUTPUTS/openbind_xx01zvns2b_c2_elabs_1LSYIIV.sdf']

>  <tags>  (1149) 
syndirella_placed,openbind_xx01zvns2b_c2_elabs,openbind_xx01zvns2b_c2_elabs_scored_6.2plus,syndirella_product,openbind_xx01zvns2b_c2_elabs_scored,openbind_xx01zvns2b_c2_elabs_scored_top80percent,BulkDock Fragalysis export

>  <subsites>  (1149) 
1 - Z4590/B/203/1

>  <smiles>  (1149) 
COc1ccc(C(=O)Nc2nc(C)cs2)cc1NC(=O)c1cccc2[nH]c(C3CC3)nc12

>  <HIPPO Pose ID>  (1149) 
139679

>  <energy_score>  (1149) 
-13.586213

>  <inchikey>  (1149) 
FPKYLQIIQXSIRJ-UHFFFAOYSA-N

>  <gnina_score_min>  (1149) 
6.212

>  <gnina_score>  (1149) 
6.384

>  <ref_mols>  (1149) 
Z3094a

>  <HIPPO Compound ID>  (1149) 
198103

>  <distance_score>  (1149) 
1.030098

>  <rmsd(smina/fragmenstein)>  (1149) 
2.249

>  <ref_pdb>  (1149) 
Z3094a

>  <inspiration_score>  (1149) 
None

$$$$
P139680
     RDKit          3D

 32 36  0  0  0  0  0  0  0  0999 V2000
   -4.4143    6.5365  -12.3849 C   0  0  0  0  0  0  0  0  0  0  0  0
   -5.6475    7.2325  -12.1957 O   0  0  0  0  0  0  0  0  0  0  0  0
   -6.4630    6.5498  -11.3365 C   0  0  0  0  0  0  0  0  0  0  0  0
   -6.4138    7.0213  -10.0267 C   0  0  0  0  0  0  0  0  0  0  0  0
   -7.1322    6.3917   -9.0334 C   0  0  0  0  0  0  0  0  0  0  0  0
   -7.9227    5.2877   -9.3395 C   0  0  0  0  0  0  0  0  0  0  0  0
   -8.6552    4.7314   -8.1521 C   0  0  0  0  0  0  0  0  0  0  0  0
   -8.8692    5.4333   -7.2514 O   0  0  0  0  0  0  0  0  0  0  0  0
   -9.0117    3.2713   -8.3701 N   0  0  0  0  0  0  0  0  0  0  0  0
   -9.5873    2.3833   -7.5495 C   0  0  0  0  0  0  0  0  0  0  0  0
  -10.0304    2.4806   -6.3312 N   0  0  0  0  0  0  0  0  0  0  0  0
  -10.4308    1.2051   -5.9360 C   0  0  0  0  0  0  0  0  0  0  0  0
  -10.3353    0.1788   -6.8788 C   0  0  0  0  0  0  0  0  0  0  0  0
  -10.6624   -1.3917   -6.8187 C   0  0  0  0  0  0  0  0  0  0  0  0
   -9.7781    0.9253   -8.3301 S   0  0  0  0  0  0  0  0  0  0  0  0
   -8.0080    4.8234  -10.6806 C   0  0  0  0  0  0  0  0  0  0  0  0
   -7.2885    5.4743  -11.7027 C   0  0  0  0  0  0  0  0  0  0  0  0
   -7.4263    5.0441  -13.0404 N   0  0  0  0  0  0  0  0  0  0  0  0
   -7.0112    5.7365  -14.3735 C   0  0  0  0  0  0  0  0  0  0  0  0
   -6.4237    6.7315  -14.5601 O   0  0  0  0  0  0  0  0  0  0  0  0
   -7.4298    4.9997  -15.5967 C   0  0  0  0  0  0  0  0  0  0  0  0
   -8.7194    4.4711  -15.7436 C   0  0  0  0  0  0  0  0  0  0  0  0
   -9.1856    4.0624  -17.0005 C   0  0  0  0  0  0  0  0  0  0  0  0
   -8.3888    4.1363  -18.1445 C   0  0  0  0  0  0  0  0  0  0  0  0
   -7.1065    4.6488  -17.9695 C   0  0  0  0  0  0  0  0  0  0  0  0
   -6.1149    4.9422  -18.8712 N   0  0  0  0  0  0  0  0  0  0  0  0
   -5.0599    5.4673  -18.1782 C   0  0  0  0  0  0  0  0  0  0  0  0
   -3.7363    6.0069  -18.7724 C   0  0  0  0  0  0  0  0  0  0  0  0
   -3.2829    5.6188  -20.1497 C   0  0  0  0  0  0  0  0  0  0  0  0
   -2.5850    5.0538  -18.9436 C   0  0  0  0  0  0  0  0  0  0  0  0
   -5.3144    5.5325  -16.8941 N   0  0  0  0  0  0  0  0  0  0  0  0
   -6.6005    5.0609  -16.7393 C   0  0  0  0  0  0  0  0  0  0  0  0
  1  2  1  0
  2  3  1  0
  3  4  2  0
  4  5  1  0
  5  6  2  0
  6  7  1  0
  7  8  2  0
  7  9  1  0
  9 10  1  0
 10 11  2  0
 11 12  1  0
 12 13  2  0
 13 14  1  0
 13 15  1  0
  6 16  1  0
 16 17  2  0
 17 18  1  0
 18 19  1  0
 19 20  2  0
 19 21  1  0
 21 22  2  0
 22 23  1  0
 23 24  2  0
 24 25  1  0
 25 26  1  0
 26 27  1  0
 27 28  1  0
 28 29  1  0
 29 30  1  0
 27 31  2  0
 31 32  1  0
 17  3  1  0
 32 21  1  0
 15 10  1  0
 32 25  2  0
 30 28  1  0
M  END
>  <name>  (1150) 
P139680

>  <alias>  (1150) 
None

>  <smina_score_min>  (1150) 
-8.407

>  <exports>  (1150) 
['/opt/xchem-fragalysis-2/maxwin/BulkDock/OUTPUTS/openbind_xx01zvns2b_c2_elabs_1LOUTNY.sdf', '/opt/xchem-fragalysis-2/maxwin/BulkDock/OUTPUTS/openbind_xx01zvns2b_c2_elabs_1LSYIIV.sdf']

>  <tags>  (1150) 
syndirella_placed,openbind_xx01zvns2b_c2_elabs,openbind_xx01zvns2b_c2_elabs_scored_6.2plus,syndirella_product,openbind_xx01zvns2b_c2_elabs_scored,openbind_xx01zvns2b_c2_elabs_scored_top80percent,BulkDock Fragalysis export

>  <subsites>  (1150) 
1 - Z4590/B/203/1

>  <smiles>  (1150) 
COc1ccc(C(=O)Nc2ncc(C)s2)cc1NC(=O)c1cccc2[nH]c(C3CC3)nc12

>  <HIPPO Pose ID>  (1150) 
139680

>  <energy_score>  (1150) 
-51.788201

>  <inchikey>  (1150) 
VLJKWJMLWCZDSU-UHFFFAOYSA-N

>  <gnina_score_min>  (1150) 
6.273

>  <gnina_score>  (1150) 
6.18

>  <ref_mols>  (1150) 
Z3094a

>  <HIPPO Compound ID>  (1150) 
198106

>  <distance_score>  (1150) 
1.347825

>  <rmsd(smina/fragmenstein)>  (1150) 
2.432

>  <ref_pdb>  (1150) 
Z3094a

>  <inspiration_score>  (1150) 
None

$$$$
P139683
     RDKit          3D

 32 36  0  0  0  0  0  0  0  0999 V2000
    0.7834   -0.5746  -11.5833 C   0  0  0  0  0  0  0  0  0  0  0  0
    0.7793    0.8068  -10.9159 C   0  0  0  0  0  0  0  0  0  0  0  0
    1.9090    1.6394  -11.5349 C   0  0  0  0  0  0  0  0  0  0  0  0
    0.9597    0.6224   -9.4054 C   0  0  0  0  0  0  0  0  0  0  0  0
   -0.5288    1.3573  -11.2159 O   0  0  0  0  0  0  0  0  0  0  0  0
   -0.8590    2.6171  -10.8190 C   0  0  0  0  0  0  0  0  0  0  0  0
   -0.1395    3.3398  -10.2612 O   0  0  0  0  0  0  0  0  0  0  0  0
   -2.2998    2.8195  -11.2895 N   0  0  0  0  0  0  0  0  0  0  0  0
   -3.1728    3.8879  -11.0987 C   0  0  0  0  0  0  0  0  0  0  0  0
   -2.7300    5.0997  -10.5730 C   0  0  0  0  0  0  0  0  0  0  0  0
   -3.6125    6.1701  -10.4529 C   0  0  0  0  0  0  0  0  0  0  0  0
   -4.9424    6.0235  -10.8486 C   0  0  0  0  0  0  0  0  0  0  0  0
   -5.4307    4.8044  -11.3536 C   0  0  0  0  0  0  0  0  0  0  0  0
   -6.8924    4.6438  -11.7570 C   0  0  0  0  0  0  0  0  0  0  0  0
   -7.1822    4.7872  -13.1474 N   0  0  0  0  0  0  0  0  0  0  0  0
   -6.2620    4.6488  -14.3867 C   0  0  0  0  0  0  0  0  0  0  0  0
   -5.1101    4.4725  -14.4573 O   0  0  0  0  0  0  0  0  0  0  0  0
   -7.0519    4.6550  -15.6694 C   0  0  0  0  0  0  0  0  0  0  0  0
   -8.3724    4.1673  -15.7804 C   0  0  0  0  0  0  0  0  0  0  0  0
   -9.0182    4.0642  -17.0184 C   0  0  0  0  0  0  0  0  0  0  0  0
   -8.3670    4.3870  -18.2047 C   0  0  0  0  0  0  0  0  0  0  0  0
   -7.0762    4.8916  -18.0797 C   0  0  0  0  0  0  0  0  0  0  0  0
   -6.1829    5.3274  -19.0250 N   0  0  0  0  0  0  0  0  0  0  0  0
   -5.0511    5.7233  -18.3719 C   0  0  0  0  0  0  0  0  0  0  0  0
   -3.7424    6.2286  -19.0180 C   0  0  0  0  0  0  0  0  0  0  0  0
   -2.5502    5.3066  -18.9678 C   0  0  0  0  0  0  0  0  0  0  0  0
   -3.2201    5.6052  -20.2793 C   0  0  0  0  0  0  0  0  0  0  0  0
   -5.1841    5.6258  -17.0735 N   0  0  0  0  0  0  0  0  0  0  0  0
   -6.4159    5.0532  -16.8621 C   0  0  0  0  0  0  0  0  0  0  0  0
   -7.9268    5.1180  -10.7542 C   0  0  0  0  0  0  0  0  0  0  0  0
   -7.7555    3.6516  -10.9873 C   0  0  0  0  0  0  0  0  0  0  0  0
   -4.5120    3.7437  -11.4770 C   0  0  0  0  0  0  0  0  0  0  0  0
  1  2  1  0
  2  3  1  0
  2  4  1  0
  2  5  1  0
  5  6  1  0
  6  7  2  0
  6  8  1  0
  8  9  1  0
  9 10  2  0
 10 11  1  0
 11 12  2  0
 12 13  1  0
 13 14  1  0
 14 15  1  0
 15 16  1  0
 16 17  2  0
 16 18  1  0
 18 19  2  0
 19 20  1  0
 20 21  2  0
 21 22  1  0
 22 23  1  0
 23 24  1  0
 24 25  1  0
 25 26  1  0
 26 27  1  0
 24 28  2  0
 28 29  1  0
 14 30  1  0
 30 31  1  0
 13 32  2  0
 32  9  1  0
 31 14  1  0
 29 18  1  0
 29 22  2  0
 27 25  1  0
M  END
>  <name>  (1151) 
P139683

>  <alias>  (1151) 
None

>  <smina_score_min>  (1151) 
-8.026

>  <exports>  (1151) 
['/opt/xchem-fragalysis-2/maxwin/BulkDock/OUTPUTS/openbind_xx01zvns2b_c2_elabs_1LOUTNY.sdf', '/opt/xchem-fragalysis-2/maxwin/BulkDock/OUTPUTS/openbind_xx01zvns2b_c2_elabs_1LSYIIV.sdf']

>  <tags>  (1151) 
syndirella_placed,openbind_xx01zvns2b_c2_elabs,openbind_xx01zvns2b_c2_elabs_scored_6.2plus,syndirella_product,openbind_xx01zvns2b_c2_elabs_scored,openbind_xx01zvns2b_c2_elabs_scored_top80percent,BulkDock Fragalysis export

>  <subsites>  (1151) 
1 - Z4590/B/203/1

>  <smiles>  (1151) 
CC(C)(C)OC(=O)Nc1cccc(C2(NC(=O)c3cccc4[nH]c(C5CC5)nc34)CC2)c1

>  <HIPPO Pose ID>  (1151) 
139683

>  <energy_score>  (1151) 
-20.623079

>  <inchikey>  (1151) 
UIXMPHBEFCHRAQ-UHFFFAOYSA-N

>  <gnina_score_min>  (1151) 
6.63

>  <gnina_score>  (1151) 
6.398

>  <ref_mols>  (1151) 
Z3094a

>  <HIPPO Compound ID>  (1151) 
198117

>  <distance_score>  (1151) 
0.958131

>  <rmsd(smina/fragmenstein)>  (1151) 
1.27

>  <ref_pdb>  (1151) 
Z3094a

>  <inspiration_score>  (1151) 
None

$$$$
P139686
     RDKit          3D

 32 36  0  0  0  0  0  0  0  0999 V2000
   -9.5181    6.3221   -4.7674 C   0  0  0  0  0  0  0  0  0  0  0  0
   -8.9120    4.9161   -4.6719 C   0  0  0  0  0  0  0  0  0  0  0  0
   -7.4245    4.9946   -4.2905 C   0  0  0  0  0  0  0  0  0  0  0  0
   -9.6373    4.1038   -3.5979 C   0  0  0  0  0  0  0  0  0  0  0  0
   -9.0681    4.1438   -5.8884 O   0  0  0  0  0  0  0  0  0  0  0  0
   -8.5053    4.6476   -7.0137 C   0  0  0  0  0  0  0  0  0  0  0  0
   -8.4778    5.7768   -7.2708 O   0  0  0  0  0  0  0  0  0  0  0  0
   -7.8844    3.4614   -7.7246 N   0  0  0  0  0  0  0  0  0  0  0  0
   -7.0071    3.4073   -8.8641 C   0  0  2  0  0  0  0  0  0  0  0  0
   -5.6421    4.0266   -8.4680 C   0  0  0  0  0  0  0  0  0  0  0  0
   -5.7888    5.5399   -8.6484 C   0  0  0  0  0  0  0  0  0  0  0  0
   -6.7545    5.5649   -9.7902 C   0  0  0  0  0  0  0  0  0  0  0  0
   -6.9114    6.6086  -10.6643 C   0  0  0  0  0  0  0  0  0  0  0  0
   -7.4658    6.3042  -11.8913 C   0  0  0  0  0  0  0  0  0  0  0  0
   -7.8589    4.9895  -12.2060 C   0  0  0  0  0  0  0  0  0  0  0  0
   -7.9377    4.6782  -13.5572 N   0  0  0  0  0  0  0  0  0  0  0  0
   -7.3973    5.4346  -14.7968 C   0  0  0  0  0  0  0  0  0  0  0  0
   -6.8703    6.4740  -14.8788 O   0  0  0  0  0  0  0  0  0  0  0  0
   -7.6971    4.7512  -16.0696 C   0  0  0  0  0  0  0  0  0  0  0  0
   -8.9782    4.2265  -16.2968 C   0  0  0  0  0  0  0  0  0  0  0  0
   -9.3929    3.8715  -17.5785 C   0  0  0  0  0  0  0  0  0  0  0  0
   -8.5358    3.9913  -18.6655 C   0  0  0  0  0  0  0  0  0  0  0  0
   -7.2600    4.4868  -18.4122 C   0  0  0  0  0  0  0  0  0  0  0  0
   -6.2273    4.7805  -19.2589 N   0  0  0  0  0  0  0  0  0  0  0  0
   -5.1700    5.2005  -18.5054 C   0  0  0  0  0  0  0  0  0  0  0  0
   -3.7572    5.4805  -19.0827 C   0  0  0  0  0  0  0  0  0  0  0  0
   -2.5674    5.4090  -18.1657 C   0  0  0  0  0  0  0  0  0  0  0  0
   -3.0389    6.7381  -18.6930 C   0  0  0  0  0  0  0  0  0  0  0  0
   -5.4999    5.3114  -17.2383 N   0  0  0  0  0  0  0  0  0  0  0  0
   -6.8033    4.8591  -17.1526 C   0  0  0  0  0  0  0  0  0  0  0  0
   -7.9455    4.0049  -11.2220 C   0  0  0  0  0  0  0  0  0  0  0  0
   -7.3624    4.3122   -9.9999 C   0  0  0  0  0  0  0  0  0  0  0  0
  1  2  1  0
  2  3  1  0
  2  4  1  0
  2  5  1  0
  5  6  1  0
  6  7  2  0
  6  8  1  0
  9  8  1  1
  9 10  1  0
 10 11  1  0
 11 12  1  0
 12 13  2  0
 13 14  1  0
 14 15  2  0
 15 16  1  0
 16 17  1  0
 17 18  2  0
 17 19  1  0
 19 20  2  0
 20 21  1  0
 21 22  2  0
 22 23  1  0
 23 24  1  0
 24 25  1  0
 25 26  1  0
 26 27  1  0
 27 28  1  0
 25 29  2  0
 29 30  1  0
 15 31  1  0
 31 32  2  0
 32  9  1  0
 32 12  1  0
 30 19  1  0
 30 23  2  0
 28 26  1  0
M  END
>  <name>  (1152) 
P139686

>  <alias>  (1152) 
None

>  <smina_score_min>  (1152) 
-8.249

>  <exports>  (1152) 
['/opt/xchem-fragalysis-2/maxwin/BulkDock/OUTPUTS/openbind_xx01zvns2b_c2_elabs_1LOUTNY.sdf', '/opt/xchem-fragalysis-2/maxwin/BulkDock/OUTPUTS/openbind_xx01zvns2b_c2_elabs_1LSYIIV.sdf']

>  <tags>  (1152) 
syndirella_placed,openbind_xx01zvns2b_c2_elabs,openbind_xx01zvns2b_c2_elabs_scored_6.2plus,syndirella_product,openbind_xx01zvns2b_c2_elabs_scored,openbind_xx01zvns2b_c2_elabs_scored_top80percent,BulkDock Fragalysis export

>  <subsites>  (1152) 
1 - Z4590/B/203/1

>  <smiles>  (1152) 
CC(C)(C)OC(=O)N[C@@H]1CCc2ccc(NC(=O)c3cccc4[nH]c(C5CC5)nc34)cc21

>  <HIPPO Pose ID>  (1152) 
139686

>  <energy_score>  (1152) 
-15.508973

>  <inchikey>  (1152) 
SZFZTSXUKNXZSH-LJQANCHMSA-N

>  <gnina_score_min>  (1152) 
6.341

>  <gnina_score>  (1152) 
6.308

>  <ref_mols>  (1152) 
Z3094a

>  <HIPPO Compound ID>  (1152) 
198119

>  <distance_score>  (1152) 
1.162484

>  <rmsd(smina/fragmenstein)>  (1152) 
0.453

>  <ref_pdb>  (1152) 
Z3094a

>  <inspiration_score>  (1152) 
None

$$$$
P139687
     RDKit          3D

 33 38  0  0  0  0  0  0  0  0999 V2000
  -10.4849    3.2275   -5.1466 O   0  0  0  0  0  0  0  0  0  0  0  0
   -9.9653    2.7526   -6.1416 C   0  0  0  0  0  0  0  0  0  0  0  0
   -8.5183    2.5721   -6.4131 C   0  0  0  0  0  0  0  0  0  0  0  0
   -8.4214    2.5267   -7.9506 C   0  0  2  0  0  0  0  0  0  0  0  0
   -8.1123    3.7882   -8.6309 N   0  0  0  0  0  0  0  0  0  0  0  0
   -8.3194    5.0177   -8.0888 C   0  0  0  0  0  0  0  0  0  0  0  0
   -8.7513    5.3420   -6.9994 O   0  0  0  0  0  0  0  0  0  0  0  0
   -7.9601    5.9926   -9.0959 C   0  0  0  0  0  0  0  0  0  0  0  0
   -7.9340    7.3665   -8.9582 C   0  0  0  0  0  0  0  0  0  0  0  0
   -7.5798    8.0981  -10.0792 C   0  0  0  0  0  0  0  0  0  0  0  0
   -7.3101    7.4410  -11.2927 C   0  0  0  0  0  0  0  0  0  0  0  0
   -7.3793    6.0390  -11.4221 C   0  0  0  0  0  0  0  0  0  0  0  0
   -7.2766    5.4789  -12.6990 N   0  0  0  0  0  0  0  0  0  0  0  0
   -6.9450    6.0777  -13.9708 C   0  0  0  0  0  0  0  0  0  0  0  0
   -6.5949    7.1919  -14.2440 O   0  0  0  0  0  0  0  0  0  0  0  0
   -7.1674    5.2044  -15.1514 C   0  0  0  0  0  0  0  0  0  0  0  0
   -8.4289    4.6010  -15.3158 C   0  0  0  0  0  0  0  0  0  0  0  0
   -8.8307    4.1051  -16.5583 C   0  0  0  0  0  0  0  0  0  0  0  0
   -7.9961    4.1679  -17.6739 C   0  0  0  0  0  0  0  0  0  0  0  0
   -6.7384    4.7363  -17.4789 C   0  0  0  0  0  0  0  0  0  0  0  0
   -5.7065    4.9655  -18.3502 N   0  0  0  0  0  0  0  0  0  0  0  0
   -4.6981    5.5811  -17.6635 C   0  0  0  0  0  0  0  0  0  0  0  0
   -3.3301    6.0270  -18.2480 C   0  0  0  0  0  0  0  0  0  0  0  0
   -2.4632    5.0190  -18.9525 C   0  0  0  0  0  0  0  0  0  0  0  0
   -3.1169    6.1224  -19.7353 C   0  0  0  0  0  0  0  0  0  0  0  0
   -5.0273    5.7793  -16.4072 N   0  0  0  0  0  0  0  0  0  0  0  0
   -6.2957    5.2517  -16.2606 C   0  0  0  0  0  0  0  0  0  0  0  0
   -7.6696    5.3239  -10.2739 C   0  0  0  0  0  0  0  0  0  0  0  0
   -7.7564    3.8930   -9.9607 C   0  0  0  0  0  0  0  0  0  0  0  0
   -7.5148    3.0286  -10.7808 O   0  0  0  0  0  0  0  0  0  0  0  0
   -9.8275    2.1725   -8.3262 C   0  0  0  0  0  0  0  0  0  0  0  0
  -10.2158    1.9900   -9.4681 O   0  0  0  0  0  0  0  0  0  0  0  0
  -10.6130    2.2583   -7.2171 N   0  0  0  0  0  0  0  0  0  0  0  0
  1  2  2  0
  2  3  1  0
  3  4  1  0
  4  5  1  6
  5  6  1  0
  6  7  2  0
  6  8  1  0
  8  9  2  0
  9 10  1  0
 10 11  2  0
 11 12  1  0
 12 13  1  0
 13 14  1  0
 14 15  2  0
 14 16  1  0
 16 17  2  0
 17 18  1  0
 18 19  2  0
 19 20  1  0
 20 21  1  0
 21 22  1  0
 22 23  1  0
 23 24  1  0
 24 25  1  0
 22 26  2  0
 26 27  1  0
 12 28  2  0
 28 29  1  0
 29 30  2  0
  4 31  1  0
 31 32  2  0
 31 33  1  0
 33  2  1  0
 29  5  1  0
 28  8  1  0
 27 16  1  0
 27 20  2  0
 25 23  1  0
M  END
>  <name>  (1153) 
P139687

>  <alias>  (1153) 
None

>  <smina_score_min>  (1153) 
-9.025

>  <exports>  (1153) 
['/opt/xchem-fragalysis-2/maxwin/BulkDock/OUTPUTS/openbind_xx01zvns2b_c2_elabs_1LOUTNY.sdf', '/opt/xchem-fragalysis-2/maxwin/BulkDock/OUTPUTS/openbind_xx01zvns2b_c2_elabs_1LSYIIV.sdf']

>  <tags>  (1153) 
syndirella_placed,openbind_xx01zvns2b_c2_elabs,openbind_xx01zvns2b_c2_elabs_scored_6.2plus,syndirella_product,openbind_xx01zvns2b_c2_elabs_scored,openbind_xx01zvns2b_c2_elabs_scored_top80percent,BulkDock Fragalysis export

>  <subsites>  (1153) 
1 - Z4590/B/203/1

>  <smiles>  (1153) 
O=C1C[C@H](N2C(=O)c3cccc(NC(=O)c4cccc5[nH]c(C6CC6)nc45)c3C2=O)C(=O)N1

>  <HIPPO Pose ID>  (1153) 
139687

>  <energy_score>  (1153) 
-55.483111

>  <inchikey>  (1153) 
NISUWTSJNYOVHD-HNNXBMFYSA-N

>  <gnina_score_min>  (1153) 
6.376

>  <gnina_score>  (1153) 
6.173

>  <ref_mols>  (1153) 
Z3094a

>  <HIPPO Compound ID>  (1153) 
198121

>  <distance_score>  (1153) 
1.713504

>  <rmsd(smina/fragmenstein)>  (1153) 
1.33

>  <ref_pdb>  (1153) 
Z3094a

>  <inspiration_score>  (1153) 
None

$$$$
P139688
     RDKit          3D

 33 38  0  0  0  0  0  0  0  0999 V2000
   -2.8064    2.6715  -13.2019 O   0  0  0  0  0  0  0  0  0  0  0  0
   -3.3423    2.2133  -12.1958 C   0  0  0  0  0  0  0  0  0  0  0  0
   -4.6121    2.7883  -11.6204 C   0  0  0  0  0  0  0  0  0  0  0  0
   -5.3301    1.7353  -10.7716 C   0  0  0  0  0  0  0  0  0  0  0  0
   -6.6434    2.2045  -10.2733 N   0  0  0  0  0  0  0  0  0  0  0  0
   -7.6860    2.4133  -11.2642 C   0  0  0  0  0  0  0  0  0  0  0  0
   -7.9919    3.8535  -11.1108 C   0  0  0  0  0  0  0  0  0  0  0  0
   -8.1056    4.8549  -12.0471 C   0  0  0  0  0  0  0  0  0  0  0  0
   -7.9423    4.5834  -13.4004 N   0  0  0  0  0  0  0  0  0  0  0  0
   -7.5632    5.5144  -14.5701 C   0  0  0  0  0  0  0  0  0  0  0  0
   -7.2536    6.6381  -14.5712 O   0  0  0  0  0  0  0  0  0  0  0  0
   -7.7107    4.8479  -15.8850 C   0  0  0  0  0  0  0  0  0  0  0  0
   -8.9171    4.2184  -16.2276 C   0  0  0  0  0  0  0  0  0  0  0  0
   -9.1817    3.8357  -17.5434 C   0  0  0  0  0  0  0  0  0  0  0  0
   -8.2476    4.0409  -18.5551 C   0  0  0  0  0  0  0  0  0  0  0  0
   -7.0469    4.6455  -18.1877 C   0  0  0  0  0  0  0  0  0  0  0  0
   -5.9676    5.0424  -18.9315 N   0  0  0  0  0  0  0  0  0  0  0  0
   -5.0440    5.5810  -18.0808 C   0  0  0  0  0  0  0  0  0  0  0  0
   -3.6489    6.1327  -18.4670 C   0  0  0  0  0  0  0  0  0  0  0  0
   -3.1155    6.0080  -19.8668 C   0  0  0  0  0  0  0  0  0  0  0  0
   -2.5483    5.1512  -18.7690 C   0  0  0  0  0  0  0  0  0  0  0  0
   -5.4902    5.6118  -16.8472 N   0  0  0  0  0  0  0  0  0  0  0  0
   -6.7437    5.0423  -16.8876 C   0  0  0  0  0  0  0  0  0  0  0  0
   -8.1524    6.1835  -11.5970 C   0  0  0  0  0  0  0  0  0  0  0  0
   -8.0643    6.5024  -10.2309 C   0  0  0  0  0  0  0  0  0  0  0  0
   -7.8070    5.5022   -9.3066 C   0  0  0  0  0  0  0  0  0  0  0  0
   -7.7221    4.2091   -9.7926 C   0  0  0  0  0  0  0  0  0  0  0  0
   -6.7212    3.2396   -9.3232 C   0  0  0  0  0  0  0  0  0  0  0  0
   -5.9077    3.5520   -8.4687 O   0  0  0  0  0  0  0  0  0  0  0  0
   -4.3889    1.2493   -9.6802 C   0  0  0  0  0  0  0  0  0  0  0  0
   -2.9723    1.0414  -10.1497 C   0  0  0  0  0  0  0  0  0  0  0  0
   -2.0555    0.7901   -9.3710 O   0  0  0  0  0  0  0  0  0  0  0  0
   -2.7417    1.2173  -11.4805 N   0  0  0  0  0  0  0  0  0  0  0  0
  1  2  2  0
  2  3  1  0
  3  4  1  0
  4  5  1  0
  5  6  1  0
  6  7  1  0
  7  8  2  0
  8  9  1  0
  9 10  1  0
 10 11  2  0
 10 12  1  0
 12 13  2  0
 13 14  1  0
 14 15  2  0
 15 16  1  0
 16 17  1  0
 17 18  1  0
 18 19  1  0
 19 20  1  0
 20 21  1  0
 18 22  2  0
 22 23  1  0
  8 24  1  0
 24 25  2  0
 25 26  1  0
 26 27  2  0
 27 28  1  0
 28 29  2  0
  4 30  1  0
 30 31  1  0
 31 32  2  0
 31 33  1  0
 33  2  1  0
 28  5  1  0
 27  7  1  0
 23 12  1  0
 23 16  2  0
 21 19  1  0
M  END
>  <name>  (1154) 
P139688

>  <alias>  (1154) 
None

>  <smina_score_min>  (1154) 
-9.687

>  <exports>  (1154) 
['/opt/xchem-fragalysis-2/maxwin/BulkDock/OUTPUTS/openbind_xx01zvns2b_c2_elabs_1LOUTNY.sdf', '/opt/xchem-fragalysis-2/maxwin/BulkDock/OUTPUTS/openbind_xx01zvns2b_c2_elabs_1LSYIIV.sdf']

>  <tags>  (1154) 
syndirella_placed,openbind_xx01zvns2b_c2_elabs,openbind_xx01zvns2b_c2_elabs_scored_6.2plus,syndirella_product,openbind_xx01zvns2b_c2_elabs_scored,openbind_xx01zvns2b_c2_elabs_scored_top80percent,BulkDock Fragalysis export

>  <subsites>  (1154) 
1 - Z4590/B/203/1

>  <smiles>  (1154) 
O=C1CC(N2Cc3c(NC(=O)c4cccc5[nH]c(C6CC6)nc45)cccc3C2=O)CC(=O)N1

>  <HIPPO Pose ID>  (1154) 
139688

>  <energy_score>  (1154) 
-4.638104

>  <inchikey>  (1154) 
ZVMGPDDEWABZPW-UHFFFAOYSA-N

>  <gnina_score_min>  (1154) 
6.916

>  <gnina_score>  (1154) 
6.697

>  <ref_mols>  (1154) 
Z3094a

>  <HIPPO Compound ID>  (1154) 
198122

>  <distance_score>  (1154) 
1.077504

>  <rmsd(smina/fragmenstein)>  (1154) 
0.636

>  <ref_pdb>  (1154) 
Z3094a

>  <inspiration_score>  (1154) 
None

$$$$
P139692
     RDKit          3D

 33 38  0  0  0  0  0  0  0  0999 V2000
   -6.9572    6.3394  -14.6839 O   0  0  0  0  0  0  0  0  0  0  0  0
   -7.3717    5.2481  -14.7251 C   0  0  0  0  0  0  0  0  0  0  0  0
   -7.7456    4.2731  -13.5821 N   0  0  0  0  0  0  0  0  0  0  0  0
   -7.7754    4.4647  -12.2085 C   0  0  0  0  0  0  0  0  0  0  0  0
   -7.2987    5.6995  -11.7206 C   0  0  0  0  0  0  0  0  0  0  0  0
   -7.2875    5.9763  -10.3706 C   0  0  0  0  0  0  0  0  0  0  0  0
   -7.7519    4.9812   -9.5496 C   0  0  0  0  0  0  0  0  0  0  0  0
   -8.2418    3.7491   -9.9828 C   0  0  0  0  0  0  0  0  0  0  0  0
   -8.2607    3.4734  -11.3402 C   0  0  0  0  0  0  0  0  0  0  0  0
   -8.7198    2.9605   -8.7964 C   0  0  0  0  0  0  0  0  0  0  0  0
   -8.3365    3.8369   -7.6801 N   0  0  0  0  0  0  0  0  0  0  0  0
   -8.9355    3.8254   -6.3658 C   0  0  2  0  0  0  0  0  0  0  0  0
   -7.8885    4.0383   -5.2642 C   0  0  0  0  0  0  0  0  0  0  0  0
   -8.6121    4.5699   -4.0490 C   0  0  2  0  0  0  0  0  0  0  0  0
   -7.7143    4.7389   -3.0386 F   0  0  0  0  0  0  0  0  0  0  0  0
   -9.6660    3.5683   -3.6114 C   0  0  0  0  0  0  0  0  0  0  0  0
  -10.3829    2.8661   -4.6753 N   0  0  0  0  0  0  0  0  0  0  0  0
   -9.8636    2.6915   -5.9401 C   0  0  0  0  0  0  0  0  0  0  0  0
  -10.2468    1.7740   -6.6545 O   0  0  0  0  0  0  0  0  0  0  0  0
   -7.8595    5.0606   -8.1152 C   0  0  0  0  0  0  0  0  0  0  0  0
   -7.6337    6.0684   -7.4692 O   0  0  0  0  0  0  0  0  0  0  0  0
   -7.6564    4.6870  -16.0544 C   0  0  0  0  0  0  0  0  0  0  0  0
   -8.9101    4.1335  -16.3481 C   0  0  0  0  0  0  0  0  0  0  0  0
   -9.2515    3.8080  -17.6589 C   0  0  0  0  0  0  0  0  0  0  0  0
   -8.3557    4.0096  -18.7069 C   0  0  0  0  0  0  0  0  0  0  0  0
   -7.1199    4.5709  -18.3882 C   0  0  0  0  0  0  0  0  0  0  0  0
   -6.0716    4.9784  -19.1709 N   0  0  0  0  0  0  0  0  0  0  0  0
   -5.0988    5.4732  -18.3471 C   0  0  0  0  0  0  0  0  0  0  0  0
   -3.7378    6.0665  -18.7830 C   0  0  0  0  0  0  0  0  0  0  0  0
   -3.1181    5.7005  -20.1008 C   0  0  0  0  0  0  0  0  0  0  0  0
   -2.5429    5.1520  -18.8249 C   0  0  0  0  0  0  0  0  0  0  0  0
   -5.4691    5.4371  -17.0900 N   0  0  0  0  0  0  0  0  0  0  0  0
   -6.7376    4.9014  -17.0940 C   0  0  0  0  0  0  0  0  0  0  0  0
  1  2  2  0
  2  3  1  0
  3  4  1  0
  4  5  2  0
  5  6  1  0
  6  7  2  0
  7  8  1  0
  8  9  2  0
  8 10  1  0
 10 11  1  0
 12 11  1  6
 12 13  1  0
 13 14  1  0
 14 15  1  1
 14 16  1  0
 16 17  1  0
 17 18  1  0
 18 19  2  0
 11 20  1  0
 20 21  2  0
  2 22  1  0
 22 23  2  0
 23 24  1  0
 24 25  2  0
 25 26  1  0
 26 27  1  0
 27 28  1  0
 28 29  1  0
 29 30  1  0
 30 31  1  0
 28 32  2  0
 32 33  1  0
  9  4  1  0
 18 12  1  0
 33 22  1  0
 20  7  1  0
 33 26  2  0
 31 29  1  0
M  END
>  <name>  (1155) 
P139692

>  <alias>  (1155) 
None

>  <smina_score_min>  (1155) 
-10.556

>  <exports>  (1155) 
['/opt/xchem-fragalysis-2/maxwin/BulkDock/OUTPUTS/openbind_xx01zvns2b_c2_elabs_1LOUTNY.sdf', '/opt/xchem-fragalysis-2/maxwin/BulkDock/OUTPUTS/openbind_xx01zvns2b_c2_elabs_1LSYIIV.sdf']

>  <tags>  (1155) 
syndirella_placed,openbind_xx01zvns2b_c2_elabs,openbind_xx01zvns2b_c2_elabs_scored_6.2plus,syndirella_product,openbind_xx01zvns2b_c2_elabs_scored,openbind_xx01zvns2b_c2_elabs_scored_top80percent,BulkDock Fragalysis export

>  <subsites>  (1155) 
1 - Z4590/B/203/1

>  <smiles>  (1155) 
O=C(Nc1ccc2c(c1)CN([C@@H]1C[C@H](F)CNC1=O)C2=O)c1cccc2[nH]c(C3CC3)nc12

>  <HIPPO Pose ID>  (1155) 
139692

>  <energy_score>  (1155) 
-20.759811

>  <inchikey>  (1155) 
RBDAXUIZXZJNDW-IFXJQAMLSA-N

>  <gnina_score_min>  (1155) 
6.35

>  <gnina_score>  (1155) 
6.224

>  <ref_mols>  (1155) 
Z3094a

>  <HIPPO Compound ID>  (1155) 
198125

>  <distance_score>  (1155) 
0.81131

>  <rmsd(smina/fragmenstein)>  (1155) 
0.368

>  <ref_pdb>  (1155) 
Z3094a

>  <inspiration_score>  (1155) 
None

$$$$
P139696
     RDKit          3D

 33 38  0  0  0  0  0  0  0  0999 V2000
   -6.4201    6.0881  -14.2627 O   0  0  0  0  0  0  0  0  0  0  0  0
   -7.1327    5.1717  -14.3819 C   0  0  0  0  0  0  0  0  0  0  0  0
   -7.8587    4.3200  -13.3124 N   0  0  0  0  0  0  0  0  0  0  0  0
   -7.9302    4.4725  -11.9401 N   0  0  0  0  0  0  0  0  0  0  0  0
   -8.1890    3.3027  -11.2275 C   0  0  0  0  0  0  0  0  0  0  0  0
   -8.2400    2.1945  -11.7553 O   0  0  0  0  0  0  0  0  0  0  0  0
   -8.4185    3.4644   -9.7721 C   0  0  0  0  0  0  0  0  0  0  0  0
   -8.7514    2.3562   -8.9926 C   0  0  0  0  0  0  0  0  0  0  0  0
   -8.8886    2.4857   -7.6165 C   0  0  0  0  0  0  0  0  0  0  0  0
   -8.6818    3.7234   -7.0081 C   0  0  0  0  0  0  0  0  0  0  0  0
   -8.3690    4.8537   -7.7767 C   0  0  0  0  0  0  0  0  0  0  0  0
   -8.1819    6.1095   -7.1778 C   0  0  0  0  0  0  0  0  0  0  0  0
   -7.9230    7.2368   -7.9704 C   0  0  0  0  0  0  0  0  0  0  0  0
   -7.7295    8.5433   -7.3288 N   0  0  0  0  0  0  0  0  0  0  0  0
   -7.8598    8.6020   -6.0976 O   0  0  0  0  0  0  0  0  0  0  0  0
   -7.4361    9.5043   -8.0517 O   0  0  0  0  0  0  0  0  0  0  0  0
   -7.8619    7.1294   -9.3616 C   0  0  0  0  0  0  0  0  0  0  0  0
   -8.0322    5.8723   -9.9565 C   0  0  0  0  0  0  0  0  0  0  0  0
   -8.2610    4.7262   -9.1833 C   0  0  0  0  0  0  0  0  0  0  0  0
   -8.0686    5.7626  -11.4327 C   0  0  0  0  0  0  0  0  0  0  0  0
   -8.3107    6.7751  -12.0845 O   0  0  0  0  0  0  0  0  0  0  0  0
   -7.5157    4.7481  -15.7657 C   0  0  0  0  0  0  0  0  0  0  0  0
   -8.8099    4.2780  -16.0664 C   0  0  0  0  0  0  0  0  0  0  0  0
   -9.2062    3.9975  -17.3761 C   0  0  0  0  0  0  0  0  0  0  0  0
   -8.3342    4.1795  -18.4431 C   0  0  0  0  0  0  0  0  0  0  0  0
   -7.0715    4.6831  -18.1380 C   0  0  0  0  0  0  0  0  0  0  0  0
   -6.0358    5.0665  -18.9495 N   0  0  0  0  0  0  0  0  0  0  0  0
   -5.0156    5.4998  -18.1515 C   0  0  0  0  0  0  0  0  0  0  0  0
   -3.6529    6.0608  -18.6249 C   0  0  0  0  0  0  0  0  0  0  0  0
   -3.1515    5.8137  -20.0194 C   0  0  0  0  0  0  0  0  0  0  0  0
   -2.5227    5.0952  -18.8581 C   0  0  0  0  0  0  0  0  0  0  0  0
   -5.3382    5.4338  -16.8822 N   0  0  0  0  0  0  0  0  0  0  0  0
   -6.6313    4.9575  -16.8435 C   0  0  0  0  0  0  0  0  0  0  0  0
  1  2  2  0
  2  3  1  0
  3  4  1  0
  4  5  1  0
  5  6  2  0
  5  7  1  0
  7  8  2  0
  8  9  1  0
  9 10  2  0
 10 11  1  0
 11 12  2  0
 12 13  1  0
 13 14  1  0
 14 15  2  0
 14 16  1  0
 13 17  2  0
 17 18  1  0
 18 19  2  0
 18 20  1  0
 20 21  2  0
  2 22  1  0
 22 23  2  0
 23 24  1  0
 24 25  2  0
 25 26  1  0
 26 27  1  0
 27 28  1  0
 28 29  1  0
 29 30  1  0
 30 31  1  0
 28 32  2  0
 32 33  1  0
 20  4  1  0
 33 22  1  0
 19  7  1  0
 33 26  2  0
 19 11  1  0
 31 29  1  0
M  CHG  2  14   1  16  -1
M  END
>  <name>  (1156) 
P139696

>  <alias>  (1156) 
None

>  <smina_score_min>  (1156) 
-9.127

>  <exports>  (1156) 
['/opt/xchem-fragalysis-2/maxwin/BulkDock/OUTPUTS/openbind_xx01zvns2b_c2_elabs_1LOUTNY.sdf', '/opt/xchem-fragalysis-2/maxwin/BulkDock/OUTPUTS/openbind_xx01zvns2b_c2_elabs_1LSYIIV.sdf']

>  <tags>  (1156) 
syndirella_placed,openbind_xx01zvns2b_c2_elabs,openbind_xx01zvns2b_c2_elabs_scored_6.2plus,syndirella_product,openbind_xx01zvns2b_c2_elabs_scored,openbind_xx01zvns2b_c2_elabs_scored_top80percent,BulkDock Fragalysis export

>  <subsites>  (1156) 
1 - Z4590/B/203/1

>  <smiles>  (1156) 
O=C(NN1C(=O)c2cccc3cc([N+](=O)[O-])cc(c23)C1=O)c1cccc2[nH]c(C3CC3)nc12

>  <HIPPO Pose ID>  (1156) 
139696

>  <energy_score>  (1156) 
-31.525305

>  <inchikey>  (1156) 
CAIYIHSJUWMYKQ-UHFFFAOYSA-N

>  <gnina_score_min>  (1156) 
6.447

>  <gnina_score>  (1156) 
6.326

>  <ref_mols>  (1156) 
Z3094a

>  <HIPPO Compound ID>  (1156) 
198129

>  <distance_score>  (1156) 
0.504204

>  <rmsd(smina/fragmenstein)>  (1156) 
0.457

>  <ref_pdb>  (1156) 
Z3094a

>  <inspiration_score>  (1156) 
None

$$$$
P139697
     RDKit          3D

 33 37  0  0  0  0  0  0  0  0999 V2000
   -3.2629    0.7431  -11.4559 C   0  0  0  0  0  0  0  0  0  0  0  0
   -3.5302    1.7317  -10.3228 C   0  0  0  0  0  0  0  0  0  0  0  0
   -3.5459    3.1804  -10.8350 C   0  0  0  0  0  0  0  0  0  0  0  0
   -2.3966    1.6010   -9.2940 C   0  0  0  0  0  0  0  0  0  0  0  0
   -4.7545    1.4381   -9.5928 O   0  0  0  0  0  0  0  0  0  0  0  0
   -5.9511    1.5761  -10.2387 C   0  0  0  0  0  0  0  0  0  0  0  0
   -6.0828    1.5051  -11.3887 O   0  0  0  0  0  0  0  0  0  0  0  0
   -6.9551    1.9249   -9.1499 N   0  0  0  0  0  0  0  0  0  0  0  0
   -8.3321    2.3596   -9.2441 C   0  0  1  0  0  0  0  0  0  0  0  0
   -8.9568    2.6239   -7.8825 C   0  0  0  0  0  0  0  0  0  0  0  0
   -8.3691    3.8880   -7.2657 C   0  0  0  0  0  0  0  0  0  0  0  0
   -8.4772    5.0621   -8.0783 O   0  0  0  0  0  0  0  0  0  0  0  0
   -8.2691    4.8748   -9.4155 C   0  0  0  0  0  0  0  0  0  0  0  0
   -8.0080    6.0142  -10.1771 C   0  0  0  0  0  0  0  0  0  0  0  0
   -7.8070    5.9125  -11.5596 C   0  0  0  0  0  0  0  0  0  0  0  0
   -7.9375    4.6780  -12.1863 C   0  0  0  0  0  0  0  0  0  0  0  0
   -7.8079    4.5002  -13.5542 N   0  0  0  0  0  0  0  0  0  0  0  0
   -7.3594    5.4845  -14.6552 C   0  0  0  0  0  0  0  0  0  0  0  0
   -6.9553    6.5756  -14.5748 O   0  0  0  0  0  0  0  0  0  0  0  0
   -7.6104    4.8832  -15.9898 C   0  0  0  0  0  0  0  0  0  0  0  0
   -8.8857    4.3307  -16.2378 C   0  0  0  0  0  0  0  0  0  0  0  0
   -9.2817    3.9439  -17.5151 C   0  0  0  0  0  0  0  0  0  0  0  0
   -8.4141    4.0706  -18.5893 C   0  0  0  0  0  0  0  0  0  0  0  0
   -7.1554    4.6072  -18.3234 C   0  0  0  0  0  0  0  0  0  0  0  0
   -6.1224    4.9051  -19.1658 N   0  0  0  0  0  0  0  0  0  0  0  0
   -5.0771    5.3469  -18.4097 C   0  0  0  0  0  0  0  0  0  0  0  0
   -3.6640    5.6198  -18.9873 C   0  0  0  0  0  0  0  0  0  0  0  0
   -2.4695    5.4576  -18.0890 C   0  0  0  0  0  0  0  0  0  0  0  0
   -2.9026    6.8289  -18.5354 C   0  0  0  0  0  0  0  0  0  0  0  0
   -5.4192    5.4822  -17.1469 N   0  0  0  0  0  0  0  0  0  0  0  0
   -6.7145    5.0101  -17.0628 C   0  0  0  0  0  0  0  0  0  0  0  0
   -8.2407    3.5531  -11.4326 C   0  0  0  0  0  0  0  0  0  0  0  0
   -8.3378    3.6318  -10.0389 C   0  0  0  0  0  0  0  0  0  0  0  0
  1  2  1  0
  2  3  1  0
  2  4  1  0
  2  5  1  0
  5  6  1  0
  6  7  2  0
  6  8  1  0
  9  8  1  1
  9 10  1  0
 10 11  1  0
 11 12  1  0
 12 13  1  0
 13 14  2  0
 14 15  1  0
 15 16  2  0
 16 17  1  0
 17 18  1  0
 18 19  2  0
 18 20  1  0
 20 21  2  0
 21 22  1  0
 22 23  2  0
 23 24  1  0
 24 25  1  0
 25 26  1  0
 26 27  1  0
 27 28  1  0
 28 29  1  0
 26 30  2  0
 30 31  1  0
 16 32  1  0
 32 33  2  0
 33  9  1  0
 33 13  1  0
 31 20  1  0
 31 24  2  0
 29 27  1  0
M  END
>  <name>  (1157) 
P139697

>  <alias>  (1157) 
None

>  <smina_score_min>  (1157) 
-9.249

>  <exports>  (1157) 
['/opt/xchem-fragalysis-2/maxwin/BulkDock/OUTPUTS/openbind_xx01zvns2b_c2_elabs_1LOUTNY.sdf', '/opt/xchem-fragalysis-2/maxwin/BulkDock/OUTPUTS/openbind_xx01zvns2b_c2_elabs_1LSYIIV.sdf']

>  <tags>  (1157) 
syndirella_placed,openbind_xx01zvns2b_c2_elabs,openbind_xx01zvns2b_c2_elabs_scored_6.2plus,syndirella_product,openbind_xx01zvns2b_c2_elabs_scored,openbind_xx01zvns2b_c2_elabs_scored_top80percent,BulkDock Fragalysis export

>  <subsites>  (1157) 
1 - Z4590/B/203/1

>  <smiles>  (1157) 
CC(C)(C)OC(=O)N[C@H]1CCOc2ccc(NC(=O)c3cccc4[nH]c(C5CC5)nc34)cc21

>  <HIPPO Pose ID>  (1157) 
139697

>  <energy_score>  (1157) 
-26.633818

>  <inchikey>  (1157) 
DNLNMNWCDNTBDL-SFHVURJKSA-N

>  <gnina_score_min>  (1157) 
6.778

>  <gnina_score>  (1157) 
6.723

>  <ref_mols>  (1157) 
Z3094a

>  <HIPPO Compound ID>  (1157) 
198131

>  <distance_score>  (1157) 
0.753671

>  <rmsd(smina/fragmenstein)>  (1157) 
0.601

>  <ref_pdb>  (1157) 
Z3094a

>  <inspiration_score>  (1157) 
None

$$$$
P139699
     RDKit          3D

 33 36  0  0  0  0  0  0  0  0999 V2000
   -1.9269    3.1546   -9.7814 C   0  0  0  0  0  0  0  0  0  0  0  0
   -2.1034    2.0757  -10.8562 C   0  0  0  0  0  0  0  0  0  0  0  0
   -1.7457    0.6824  -10.3360 C   0  0  0  0  0  0  0  0  0  0  0  0
   -1.1730    2.3988  -12.0321 C   0  0  0  0  0  0  0  0  0  0  0  0
   -3.4387    2.1084  -11.4215 O   0  0  0  0  0  0  0  0  0  0  0  0
   -4.5233    1.8728  -10.6356 C   0  0  0  0  0  0  0  0  0  0  0  0
   -4.4760    1.5756   -9.5171 O   0  0  0  0  0  0  0  0  0  0  0  0
   -5.7164    2.1202  -11.5381 N   0  0  0  0  0  0  0  0  0  0  0  0
   -7.1186    2.1492  -11.2424 C   0  0  0  0  0  0  0  0  0  0  0  0
   -7.5517    3.5317  -10.8406 C   0  0  0  0  0  0  0  0  0  0  0  0
   -7.7860    3.7549   -9.4649 C   0  0  0  0  0  0  0  0  0  0  0  0
   -7.9932    5.0508   -8.9967 C   0  0  0  0  0  0  0  0  0  0  0  0
   -8.1856    5.2898   -7.5710 N   0  0  0  0  0  0  0  0  0  0  0  0
   -7.6876    6.3219   -7.0948 O   0  0  0  0  0  0  0  0  0  0  0  0
   -8.8591    4.4715   -6.9333 O   0  0  0  0  0  0  0  0  0  0  0  0
   -7.9800    6.1361   -9.8703 C   0  0  0  0  0  0  0  0  0  0  0  0
   -7.7920    5.9109  -11.2352 C   0  0  0  0  0  0  0  0  0  0  0  0
   -7.5983    4.6169  -11.7386 C   0  0  0  0  0  0  0  0  0  0  0  0
   -7.5016    4.4452  -13.1267 N   0  0  0  0  0  0  0  0  0  0  0  0
   -7.3736    5.4913  -14.2639 C   0  0  0  0  0  0  0  0  0  0  0  0
   -7.2513    6.6526  -14.2144 O   0  0  0  0  0  0  0  0  0  0  0  0
   -7.5338    4.8740  -15.5992 C   0  0  0  0  0  0  0  0  0  0  0  0
   -8.7686    4.2880  -15.9249 C   0  0  0  0  0  0  0  0  0  0  0  0
   -9.0793    3.9446  -17.2428 C   0  0  0  0  0  0  0  0  0  0  0  0
   -8.1628    4.1388  -18.2739 C   0  0  0  0  0  0  0  0  0  0  0  0
   -6.9366    4.7014  -17.9208 C   0  0  0  0  0  0  0  0  0  0  0  0
   -5.8512    5.0475  -18.6791 N   0  0  0  0  0  0  0  0  0  0  0  0
   -4.9066    5.5797  -17.8475 C   0  0  0  0  0  0  0  0  0  0  0  0
   -3.5022    6.0858  -18.2648 C   0  0  0  0  0  0  0  0  0  0  0  0
   -3.0828    6.1275  -19.7086 C   0  0  0  0  0  0  0  0  0  0  0  0
   -2.5012    5.0911  -18.7868 C   0  0  0  0  0  0  0  0  0  0  0  0
   -5.3324    5.6318  -16.6061 N   0  0  0  0  0  0  0  0  0  0  0  0
   -6.5937    5.0778  -16.6221 C   0  0  0  0  0  0  0  0  0  0  0  0
  1  2  1  0
  2  3  1  0
  2  4  1  0
  2  5  1  0
  5  6  1  0
  6  7  2  0
  6  8  1  0
  8  9  1  0
  9 10  1  0
 10 11  2  0
 11 12  1  0
 12 13  1  0
 13 14  2  0
 13 15  1  0
 12 16  2  0
 16 17  1  0
 17 18  2  0
 18 19  1  0
 19 20  1  0
 20 21  2  0
 20 22  1  0
 22 23  2  0
 23 24  1  0
 24 25  2  0
 25 26  1  0
 26 27  1  0
 27 28  1  0
 28 29  1  0
 29 30  1  0
 30 31  1  0
 28 32  2  0
 32 33  1  0
 18 10  1  0
 33 22  1  0
 33 26  2  0
 31 29  1  0
M  CHG  2  13   1  15  -1
M  END
>  <name>  (1158) 
P139699

>  <alias>  (1158) 
None

>  <smina_score_min>  (1158) 
-8.4

>  <exports>  (1158) 
['/opt/xchem-fragalysis-2/maxwin/BulkDock/OUTPUTS/openbind_xx01zvns2b_c2_elabs_1LOUTNY.sdf', '/opt/xchem-fragalysis-2/maxwin/BulkDock/OUTPUTS/openbind_xx01zvns2b_c2_elabs_1LSYIIV.sdf']

>  <tags>  (1158) 
syndirella_placed,openbind_xx01zvns2b_c2_elabs,openbind_xx01zvns2b_c2_elabs_scored_6.2plus,syndirella_product,openbind_xx01zvns2b_c2_elabs_scored,openbind_xx01zvns2b_c2_elabs_scored_top80percent,BulkDock Fragalysis export

>  <subsites>  (1158) 
1 - Z4590/B/203/1

>  <smiles>  (1158) 
CC(C)(C)OC(=O)NCc1cc([N+](=O)[O-])ccc1NC(=O)c1cccc2[nH]c(C3CC3)nc12

>  <HIPPO Pose ID>  (1158) 
139699

>  <energy_score>  (1158) 
-28.63695

>  <inchikey>  (1158) 
YXCUZTINRRBCHG-UHFFFAOYSA-N

>  <gnina_score_min>  (1158) 
6.843

>  <gnina_score>  (1158) 
6.336

>  <ref_mols>  (1158) 
Z3094a

>  <HIPPO Compound ID>  (1158) 
198133

>  <distance_score>  (1158) 
0.778896

>  <rmsd(smina/fragmenstein)>  (1158) 
1.28

>  <ref_pdb>  (1158) 
Z3094a

>  <inspiration_score>  (1158) 
None

$$$$
P139701
     RDKit          3D

 33 38  0  0  0  0  0  0  0  0999 V2000
   -5.3992    3.2596   -9.2850 C   0  0  0  0  0  0  0  0  0  0  0  0
   -6.3589    2.2120   -9.9021 C   0  0  1  0  0  0  0  0  0  0  0  0
   -5.6346    1.0876  -10.5912 C   0  0  0  0  0  0  0  0  0  0  0  0
   -4.2018    0.6669  -10.3329 C   0  0  0  0  0  0  0  0  0  0  0  0
   -4.5361    1.4272  -11.5816 C   0  0  0  0  0  0  0  0  0  0  0  0
   -7.3540    1.8043   -8.9301 N   0  0  0  0  0  0  0  0  0  0  0  0
   -8.3315    2.7943   -8.8259 C   0  0  0  0  0  0  0  0  0  0  0  0
   -9.0456    2.9479   -7.8466 O   0  0  0  0  0  0  0  0  0  0  0  0
   -8.2451    3.5721   -9.9530 N   0  0  0  0  0  0  0  0  0  0  0  0
   -8.3174    4.9907   -9.9670 C   0  0  0  0  0  0  0  0  0  0  0  0
   -8.4891    5.7627   -8.8156 C   0  0  0  0  0  0  0  0  0  0  0  0
   -8.3617    7.1565   -8.8688 C   0  0  0  0  0  0  0  0  0  0  0  0
   -8.0307    7.7916  -10.0673 C   0  0  0  0  0  0  0  0  0  0  0  0
   -7.8489    7.0415  -11.2315 C   0  0  0  0  0  0  0  0  0  0  0  0
   -7.3779    7.6910  -12.5064 C   0  0  0  0  0  0  0  0  0  0  0  0
   -7.4740    6.8346  -13.6620 N   0  0  0  0  0  0  0  0  0  0  0  0
   -6.4445    5.8621  -14.2781 C   0  0  0  0  0  0  0  0  0  0  0  0
   -5.3333    5.6593  -13.9930 O   0  0  0  0  0  0  0  0  0  0  0  0
   -7.0411    5.1978  -15.4760 C   0  0  0  0  0  0  0  0  0  0  0  0
   -8.3021    4.5777  -15.4505 C   0  0  0  0  0  0  0  0  0  0  0  0
   -8.8969    4.1236  -16.6343 C   0  0  0  0  0  0  0  0  0  0  0  0
   -8.2568    4.2320  -17.8721 C   0  0  0  0  0  0  0  0  0  0  0  0
   -6.9956    4.8246  -17.8624 C   0  0  0  0  0  0  0  0  0  0  0  0
   -6.1187    5.1195  -18.8757 N   0  0  0  0  0  0  0  0  0  0  0  0
   -5.0211    5.7107  -18.3148 C   0  0  0  0  0  0  0  0  0  0  0  0
   -3.7345    6.1607  -19.0430 C   0  0  0  0  0  0  0  0  0  0  0  0
   -2.5749    5.1982  -19.0566 C   0  0  0  0  0  0  0  0  0  0  0  0
   -3.3021    5.5250  -20.3308 C   0  0  0  0  0  0  0  0  0  0  0  0
   -5.1733    5.8885  -17.0262 N   0  0  0  0  0  0  0  0  0  0  0  0
   -6.3738    5.3011  -16.7089 C   0  0  0  0  0  0  0  0  0  0  0  0
   -8.0252    5.6598  -11.1573 C   0  0  0  0  0  0  0  0  0  0  0  0
   -7.3648    2.9322  -10.8035 C   0  0  0  0  0  0  0  0  0  0  0  0
   -7.3336    2.9686  -12.0273 O   0  0  0  0  0  0  0  0  0  0  0  0
  2  1  1  1
  2  3  1  0
  3  4  1  0
  4  5  1  0
  2  6  1  0
  6  7  1  0
  7  8  2  0
  7  9  1  0
  9 10  1  0
 10 11  2  0
 11 12  1  0
 12 13  2  0
 13 14  1  0
 14 15  1  0
 15 16  1  0
 16 17  1  0
 17 18  2  0
 17 19  1  0
 19 20  2  0
 20 21  1  0
 21 22  2  0
 22 23  1  0
 23 24  1  0
 24 25  1  0
 25 26  1  0
 26 27  1  0
 27 28  1  0
 25 29  2  0
 29 30  1  0
 14 31  2  0
  9 32  1  0
 32 33  2  0
 32  2  1  0
  5  3  1  0
 31 10  1  0
 30 19  1  0
 30 23  2  0
 28 26  1  0
M  END
>  <name>  (1159) 
P139701

>  <alias>  (1159) 
None

>  <smina_score_min>  (1159) 
-8.911

>  <exports>  (1159) 
['/opt/xchem-fragalysis-2/maxwin/BulkDock/OUTPUTS/openbind_xx01zvns2b_c2_elabs_1LOUTNY.sdf', '/opt/xchem-fragalysis-2/maxwin/BulkDock/OUTPUTS/openbind_xx01zvns2b_c2_elabs_1LSYIIV.sdf']

>  <tags>  (1159) 
syndirella_placed,openbind_xx01zvns2b_c2_elabs,openbind_xx01zvns2b_c2_elabs_scored_6.2plus,syndirella_product,openbind_xx01zvns2b_c2_elabs_scored,openbind_xx01zvns2b_c2_elabs_scored_top80percent,BulkDock Fragalysis export

>  <subsites>  (1159) 
1 - Z4590/B/203/1

>  <smiles>  (1159) 
C[C@@]1(C2CC2)NC(=O)N(c2cccc(CNC(=O)c3cccc4[nH]c(C5CC5)nc34)c2)C1=O

>  <HIPPO Pose ID>  (1159) 
139701

>  <energy_score>  (1159) 
-12.261114

>  <inchikey>  (1159) 
HLCCDIAIUITYNS-VWLOTQADSA-N

>  <gnina_score_min>  (1159) 
6.533

>  <gnina_score>  (1159) 
6.343

>  <ref_mols>  (1159) 
Z3094a

>  <HIPPO Compound ID>  (1159) 
198136

>  <distance_score>  (1159) 
1.329755

>  <rmsd(smina/fragmenstein)>  (1159) 
0.694

>  <ref_pdb>  (1159) 
Z3094a

>  <inspiration_score>  (1159) 
None

$$$$
P139702
     RDKit          3D

 33 37  0  0  0  0  0  0  0  0999 V2000
   -6.9348   13.2944  -12.9870 C   0  0  0  0  0  0  0  0  0  0  0  0
   -7.4223   12.6808  -11.6651 C   0  0  0  0  0  0  0  0  0  0  0  0
   -8.8582   13.1521  -11.4094 C   0  0  0  0  0  0  0  0  0  0  0  0
   -6.4675   13.1115  -10.5462 C   0  0  0  0  0  0  0  0  0  0  0  0
   -7.3671   11.2472  -11.8859 O   0  0  0  0  0  0  0  0  0  0  0  0
   -7.7339   10.3694  -10.9102 C   0  0  0  0  0  0  0  0  0  0  0  0
   -8.1188   10.7031   -9.8319 O   0  0  0  0  0  0  0  0  0  0  0  0
   -7.5526    9.0838  -11.4719 N   0  0  0  0  0  0  0  0  0  0  0  0
   -7.6798    7.8137  -10.9123 C   0  0  0  0  0  0  0  0  0  0  0  0
   -8.1569    7.6066   -9.6237 C   0  0  0  0  0  0  0  0  0  0  0  0
   -8.2359    6.3085   -9.1211 C   0  0  0  0  0  0  0  0  0  0  0  0
   -7.8535    5.2170   -9.9041 C   0  0  0  0  0  0  0  0  0  0  0  0
   -7.3992    5.3966  -11.2166 C   0  0  0  0  0  0  0  0  0  0  0  0
   -7.3015    6.7151  -11.6938 C   0  0  0  0  0  0  0  0  0  0  0  0
   -6.9302    4.2047  -12.0275 C   0  0  2  0  0  0  0  0  0  0  0  0
   -7.2693    4.2490  -13.4440 N   0  0  0  0  0  0  0  0  0  0  0  0
   -6.7229    5.0287  -14.5204 C   0  0  0  0  0  0  0  0  0  0  0  0
   -5.9027    5.8994  -14.5154 O   0  0  0  0  0  0  0  0  0  0  0  0
   -7.3599    4.7239  -15.8441 C   0  0  0  0  0  0  0  0  0  0  0  0
   -8.7220    4.3657  -15.9392 C   0  0  0  0  0  0  0  0  0  0  0  0
   -9.3327    4.1211  -17.1717 C   0  0  0  0  0  0  0  0  0  0  0  0
   -8.6214    4.2275  -18.3603 C   0  0  0  0  0  0  0  0  0  0  0  0
   -7.2935    4.6312  -18.2556 C   0  0  0  0  0  0  0  0  0  0  0  0
   -6.3689    4.9077  -19.2281 N   0  0  0  0  0  0  0  0  0  0  0  0
   -5.1993    5.2443  -18.6109 C   0  0  0  0  0  0  0  0  0  0  0  0
   -3.8690    5.5555  -19.3516 C   0  0  0  0  0  0  0  0  0  0  0  0
   -2.9486    6.6072  -18.7946 C   0  0  0  0  0  0  0  0  0  0  0  0
   -2.5732    5.1557  -18.6961 C   0  0  0  0  0  0  0  0  0  0  0  0
   -5.3358    5.2611  -17.3041 N   0  0  0  0  0  0  0  0  0  0  0  0
   -6.6389    4.8801  -17.0497 C   0  0  0  0  0  0  0  0  0  0  0  0
   -7.4912    2.9160  -11.4200 C   0  0  0  0  0  0  0  0  0  0  0  0
   -7.2772    2.9298   -9.9193 C   0  0  0  0  0  0  0  0  0  0  0  0
   -7.9819    4.0010   -9.2930 O   0  0  0  0  0  0  0  0  0  0  0  0
  1  2  1  0
  2  3  1  0
  2  4  1  0
  2  5  1  0
  5  6  1  0
  6  7  2  0
  6  8  1  0
  8  9  1  0
  9 10  2  0
 10 11  1  0
 11 12  2  0
 12 13  1  0
 13 14  2  0
 13 15  1  0
 15 16  1  6
 16 17  1  0
 17 18  2  0
 17 19  1  0
 19 20  2  0
 20 21  1  0
 21 22  2  0
 22 23  1  0
 23 24  1  0
 24 25  1  0
 25 26  1  0
 26 27  1  0
 27 28  1  0
 25 29  2  0
 29 30  1  0
 15 31  1  0
 31 32  1  0
 32 33  1  0
 14  9  1  0
 30 19  1  0
 33 12  1  0
 30 23  2  0
 28 26  1  0
M  END
>  <name>  (1160) 
P139702

>  <alias>  (1160) 
None

>  <smina_score_min>  (1160) 
-8.228

>  <exports>  (1160) 
['/opt/xchem-fragalysis-2/maxwin/BulkDock/OUTPUTS/openbind_xx01zvns2b_c2_elabs_1LOUTNY.sdf', '/opt/xchem-fragalysis-2/maxwin/BulkDock/OUTPUTS/openbind_xx01zvns2b_c2_elabs_1LSYIIV.sdf']

>  <tags>  (1160) 
syndirella_placed,openbind_xx01zvns2b_c2_elabs,openbind_xx01zvns2b_c2_elabs_scored_6.2plus,syndirella_product,openbind_xx01zvns2b_c2_elabs_scored,openbind_xx01zvns2b_c2_elabs_scored_top80percent,BulkDock Fragalysis export

>  <subsites>  (1160) 
1 - Z4590/B/203/1

>  <smiles>  (1160) 
CC(C)(C)OC(=O)Nc1ccc2c(c1)[C@H](NC(=O)c1cccc3[nH]c(C4CC4)nc13)CCO2

>  <HIPPO Pose ID>  (1160) 
139702

>  <energy_score>  (1160) 
-70.164366

>  <inchikey>  (1160) 
OMIZTXRRBYIPJS-GOSISDBHSA-N

>  <gnina_score_min>  (1160) 
6.368

>  <gnina_score>  (1160) 
6.403

>  <ref_mols>  (1160) 
Z3094a

>  <HIPPO Compound ID>  (1160) 
198137

>  <distance_score>  (1160) 
1.142046

>  <rmsd(smina/fragmenstein)>  (1160) 
1.708

>  <ref_pdb>  (1160) 
Z3094a

>  <inspiration_score>  (1160) 
None

$$$$
P139703
     RDKit          3D

 33 38  0  0  0  0  0  0  0  0999 V2000
   -6.8928    6.7557  -14.7057 O   0  0  0  0  0  0  0  0  0  0  0  0
   -7.3093    5.6689  -14.6494 C   0  0  0  0  0  0  0  0  0  0  0  0
   -7.7893    4.8453  -13.4398 N   0  0  0  0  0  0  0  0  0  0  0  0
   -7.9412    5.2037  -12.1100 C   0  0  0  0  0  0  0  0  0  0  0  0
   -7.9419    6.5358  -11.6914 C   0  0  0  0  0  0  0  0  0  0  0  0
   -8.0949    6.8680  -10.3276 C   0  0  0  0  0  0  0  0  0  0  0  0
   -8.2193    5.8732   -9.3597 C   0  0  0  0  0  0  0  0  0  0  0  0
   -8.1961    4.5680   -9.8043 C   0  0  0  0  0  0  0  0  0  0  0  0
   -8.0885    4.2435  -11.1383 C   0  0  0  0  0  0  0  0  0  0  0  0
   -7.7737    2.8357  -11.2221 C   0  0  0  0  0  0  0  0  0  0  0  0
   -7.6697    2.2415  -12.2759 O   0  0  0  0  0  0  0  0  0  0  0  0
   -7.5352    2.4297   -9.9439 N   0  0  0  0  0  0  0  0  0  0  0  0
   -6.5478    1.4138   -9.7028 C   0  0  0  0  0  0  0  0  0  0  0  0
   -5.1161    1.9320   -9.8269 C   0  0  0  0  0  0  0  0  0  0  0  0
   -4.2697    1.3883  -10.8075 C   0  0  0  0  0  0  0  0  0  0  0  0
   -2.9593    1.8442  -10.9600 C   0  0  0  0  0  0  0  0  0  0  0  0
   -2.4730    2.8523  -10.1325 C   0  0  0  0  0  0  0  0  0  0  0  0
   -3.3005    3.4094   -9.1602 C   0  0  0  0  0  0  0  0  0  0  0  0
   -4.6136    2.9561   -9.0130 C   0  0  0  0  0  0  0  0  0  0  0  0
   -7.9132    3.3728   -9.0328 C   0  0  0  0  0  0  0  0  0  0  0  0
   -7.8910    3.4108   -7.8191 O   0  0  0  0  0  0  0  0  0  0  0  0
   -7.5332    4.9259  -15.9181 C   0  0  0  0  0  0  0  0  0  0  0  0
   -8.8087    4.3605  -16.1367 C   0  0  0  0  0  0  0  0  0  0  0  0
   -9.2178    3.9443  -17.4027 C   0  0  0  0  0  0  0  0  0  0  0  0
   -8.3660    4.0451  -18.4935 C   0  0  0  0  0  0  0  0  0  0  0  0
   -7.1024    4.5797  -18.2527 C   0  0  0  0  0  0  0  0  0  0  0  0
   -6.0737    4.8453  -19.1114 N   0  0  0  0  0  0  0  0  0  0  0  0
   -5.0236    5.3128  -18.3778 C   0  0  0  0  0  0  0  0  0  0  0  0
   -3.6135    5.5592  -18.9732 C   0  0  0  0  0  0  0  0  0  0  0  0
   -2.8914    6.8330  -18.6516 C   0  0  0  0  0  0  0  0  0  0  0  0
   -2.4209    5.5307  -18.0593 C   0  0  0  0  0  0  0  0  0  0  0  0
   -5.3581    5.4960  -17.1192 N   0  0  0  0  0  0  0  0  0  0  0  0
   -6.6494    5.0165  -17.0074 C   0  0  0  0  0  0  0  0  0  0  0  0
  1  2  2  0
  2  3  1  0
  3  4  1  0
  4  5  2  0
  5  6  1  0
  6  7  2  0
  7  8  1  0
  8  9  2  0
  9 10  1  0
 10 11  2  0
 10 12  1  0
 12 13  1  0
 13 14  1  0
 14 15  2  0
 15 16  1  0
 16 17  2  0
 17 18  1  0
 18 19  2  0
 12 20  1  0
 20 21  2  0
  2 22  1  0
 22 23  2  0
 23 24  1  0
 24 25  2  0
 25 26  1  0
 26 27  1  0
 27 28  1  0
 28 29  1  0
 29 30  1  0
 30 31  1  0
 28 32  2  0
 32 33  1  0
  9  4  1  0
 19 14  1  0
 33 22  1  0
 20  8  1  0
 33 26  2  0
 31 29  1  0
M  END
>  <name>  (1161) 
P139703

>  <alias>  (1161) 
None

>  <smina_score_min>  (1161) 
-8.747

>  <exports>  (1161) 
['/opt/xchem-fragalysis-2/maxwin/BulkDock/OUTPUTS/openbind_xx01zvns2b_c2_elabs_1LOUTNY.sdf', '/opt/xchem-fragalysis-2/maxwin/BulkDock/OUTPUTS/openbind_xx01zvns2b_c2_elabs_1LSYIIV.sdf']

>  <tags>  (1161) 
syndirella_placed,openbind_xx01zvns2b_c2_elabs,openbind_xx01zvns2b_c2_elabs_scored_6.2plus,syndirella_product,openbind_xx01zvns2b_c2_elabs_scored,openbind_xx01zvns2b_c2_elabs_scored_top80percent,BulkDock Fragalysis export

>  <subsites>  (1161) 
1 - Z4590/B/203/1

>  <smiles>  (1161) 
O=C(Nc1cccc2c1C(=O)N(Cc1ccccc1)C2=O)c1cccc2[nH]c(C3CC3)nc12

>  <HIPPO Pose ID>  (1161) 
139703

>  <energy_score>  (1161) 
-8.89406

>  <inchikey>  (1161) 
NEIXSTXLWWYQME-UHFFFAOYSA-N

>  <gnina_score_min>  (1161) 
6.587

>  <gnina_score>  (1161) 
6.512

>  <ref_mols>  (1161) 
Z3094a

>  <HIPPO Compound ID>  (1161) 
198140

>  <distance_score>  (1161) 
1.041825

>  <rmsd(smina/fragmenstein)>  (1161) 
0.61

>  <ref_pdb>  (1161) 
Z3094a

>  <inspiration_score>  (1161) 
None

$$$$
P139704
     RDKit          3D

 33 38  0  0  0  0  0  0  0  0999 V2000
  -10.1727    4.0989   -2.6214 O   0  0  0  0  0  0  0  0  0  0  0  0
   -9.8844    3.9057   -3.8025 C   0  0  0  0  0  0  0  0  0  0  0  0
  -10.4322    2.7277   -4.6213 C   0  0  0  0  0  0  0  0  0  0  0  0
  -10.0741    2.6616   -6.0979 C   0  0  0  0  0  0  0  0  0  0  0  0
   -8.8229    3.4605   -6.3752 C   0  0  1  0  0  0  0  0  0  0  0  0
   -8.4597    3.6324   -7.7525 N   0  0  0  0  0  0  0  0  0  0  0  0
   -8.8792    2.8079   -8.8795 C   0  0  0  0  0  0  0  0  0  0  0  0
   -8.2408    3.5438  -10.0168 C   0  0  0  0  0  0  0  0  0  0  0  0
   -8.4059    3.4245  -11.3834 C   0  0  0  0  0  0  0  0  0  0  0  0
   -7.7603    4.3656  -12.1975 C   0  0  0  0  0  0  0  0  0  0  0  0
   -7.8956    4.3073  -13.5762 N   0  0  0  0  0  0  0  0  0  0  0  0
   -7.3632    5.2545  -14.6799 C   0  0  0  0  0  0  0  0  0  0  0  0
   -6.7944    6.2712  -14.5951 O   0  0  0  0  0  0  0  0  0  0  0  0
   -7.6709    4.7438  -16.0324 C   0  0  0  0  0  0  0  0  0  0  0  0
   -8.9226    4.1876  -16.3381 C   0  0  0  0  0  0  0  0  0  0  0  0
   -9.2557    3.8487  -17.6480 C   0  0  0  0  0  0  0  0  0  0  0  0
   -8.3511    4.0363  -18.6893 C   0  0  0  0  0  0  0  0  0  0  0  0
   -7.1187    4.6015  -18.3649 C   0  0  0  0  0  0  0  0  0  0  0  0
   -6.0589    4.9854  -19.1439 N   0  0  0  0  0  0  0  0  0  0  0  0
   -5.0923    5.4919  -18.3208 C   0  0  0  0  0  0  0  0  0  0  0  0
   -3.7210    6.0647  -18.7524 C   0  0  0  0  0  0  0  0  0  0  0  0
   -2.5481    5.1248  -18.8312 C   0  0  0  0  0  0  0  0  0  0  0  0
   -3.1200    5.7240  -20.0857 C   0  0  0  0  0  0  0  0  0  0  0  0
   -5.4777    5.4851  -17.0680 N   0  0  0  0  0  0  0  0  0  0  0  0
   -6.7471    4.9499  -17.0713 C   0  0  0  0  0  0  0  0  0  0  0  0
   -6.9614    5.3876  -11.6457 C   0  0  0  0  0  0  0  0  0  0  0  0
   -6.7460    5.4651  -10.2811 C   0  0  0  0  0  0  0  0  0  0  0  0
   -7.3844    4.5252   -9.5115 C   0  0  0  0  0  0  0  0  0  0  0  0
   -7.3883    4.4463   -8.0646 C   0  0  0  0  0  0  0  0  0  0  0  0
   -6.6287    5.0360   -7.3181 O   0  0  0  0  0  0  0  0  0  0  0  0
   -9.1123    4.8531   -5.7839 C   0  0  0  0  0  0  0  0  0  0  0  0
   -9.4382    5.8659   -6.3941 O   0  0  0  0  0  0  0  0  0  0  0  0
   -9.1064    4.8249   -4.4255 N   0  0  0  0  0  0  0  0  0  0  0  0
  1  2  2  0
  2  3  1  0
  3  4  1  0
  4  5  1  0
  5  6  1  6
  6  7  1  0
  7  8  1  0
  8  9  2  0
  9 10  1  0
 10 11  1  0
 11 12  1  0
 12 13  2  0
 12 14  1  0
 14 15  2  0
 15 16  1  0
 16 17  2  0
 17 18  1  0
 18 19  1  0
 19 20  1  0
 20 21  1  0
 21 22  1  0
 22 23  1  0
 20 24  2  0
 24 25  1  0
 10 26  2  0
 26 27  1  0
 27 28  2  0
 28 29  1  0
 29 30  2  0
  5 31  1  0
 31 32  2  0
 31 33  1  0
 33  2  1  0
 29  6  1  0
 28  8  1  0
 25 14  1  0
 25 18  2  0
 23 21  1  0
M  END
>  <name>  (1162) 
P139704

>  <alias>  (1162) 
None

>  <smina_score_min>  (1162) 
-9.765

>  <exports>  (1162) 
['/opt/xchem-fragalysis-2/maxwin/BulkDock/OUTPUTS/openbind_xx01zvns2b_c2_elabs_1LOUTNY.sdf', '/opt/xchem-fragalysis-2/maxwin/BulkDock/OUTPUTS/openbind_xx01zvns2b_c2_elabs_1LSYIIV.sdf']

>  <tags>  (1162) 
syndirella_placed,openbind_xx01zvns2b_c2_elabs,openbind_xx01zvns2b_c2_elabs_scored_6.2plus,syndirella_product,openbind_xx01zvns2b_c2_elabs_scored,openbind_xx01zvns2b_c2_elabs_scored_top80percent,BulkDock Fragalysis export

>  <subsites>  (1162) 
1 - Z4590/B/203/1

>  <smiles>  (1162) 
O=C1CC[C@@H](N2Cc3cc(NC(=O)c4cccc5[nH]c(C6CC6)nc45)ccc3C2=O)C(=O)N1

>  <HIPPO Pose ID>  (1162) 
139704

>  <energy_score>  (1162) 
-30.375227

>  <inchikey>  (1162) 
DBALDBHORGANKN-GOSISDBHSA-N

>  <gnina_score_min>  (1162) 
6.213

>  <gnina_score>  (1162) 
6.262

>  <ref_mols>  (1162) 
Z3094a

>  <HIPPO Compound ID>  (1162) 
198141

>  <distance_score>  (1162) 
0.792987

>  <rmsd(smina/fragmenstein)>  (1162) 
0.564

>  <ref_pdb>  (1162) 
Z3094a

>  <inspiration_score>  (1162) 
None

$$$$
P139705
     RDKit          3D

 33 37  0  0  0  0  0  0  0  0999 V2000
   -2.3570    1.8840   -9.0914 C   0  0  0  0  0  0  0  0  0  0  0  0
   -3.4578    1.9209  -10.1625 C   0  0  0  0  0  0  0  0  0  0  0  0
   -3.5963    3.3676  -10.6612 C   0  0  0  0  0  0  0  0  0  0  0  0
   -3.0580    0.9769  -11.2968 C   0  0  0  0  0  0  0  0  0  0  0  0
   -4.6743    1.5030   -9.4820 O   0  0  0  0  0  0  0  0  0  0  0  0
   -5.8550    1.5501  -10.1668 C   0  0  0  0  0  0  0  0  0  0  0  0
   -5.9452    1.3972  -11.3136 O   0  0  0  0  0  0  0  0  0  0  0  0
   -6.9071    1.9297   -9.1358 N   0  0  0  0  0  0  0  0  0  0  0  0
   -8.2898    2.2996   -9.3008 C   0  0  1  0  0  0  0  0  0  0  0  0
   -9.0395    2.4659   -7.9802 C   0  0  0  0  0  0  0  0  0  0  0  0
   -8.6996    3.7314   -7.1811 C   0  0  0  0  0  0  0  0  0  0  0  0
   -7.8999    4.8115   -7.9166 C   0  0  0  0  0  0  0  0  0  0  0  0
   -8.0525    4.8036   -9.4122 C   0  0  0  0  0  0  0  0  0  0  0  0
   -7.7822    5.9466  -10.1727 C   0  0  0  0  0  0  0  0  0  0  0  0
   -7.7129    5.8688  -11.5693 C   0  0  0  0  0  0  0  0  0  0  0  0
   -7.9466    4.6569  -12.2114 C   0  0  0  0  0  0  0  0  0  0  0  0
   -7.8311    4.4876  -13.5814 N   0  0  0  0  0  0  0  0  0  0  0  0
   -7.3464    5.4634  -14.6752 C   0  0  0  0  0  0  0  0  0  0  0  0
   -6.8960    6.5356  -14.5861 O   0  0  0  0  0  0  0  0  0  0  0  0
   -7.6290    4.8855  -16.0134 C   0  0  0  0  0  0  0  0  0  0  0  0
   -8.9075    4.3422  -16.2590 C   0  0  0  0  0  0  0  0  0  0  0  0
   -9.3057    3.9543  -17.5351 C   0  0  0  0  0  0  0  0  0  0  0  0
   -8.4368    4.0722  -18.6096 C   0  0  0  0  0  0  0  0  0  0  0  0
   -7.1746    4.6015  -18.3458 C   0  0  0  0  0  0  0  0  0  0  0  0
   -6.1382    4.8895  -19.1878 N   0  0  0  0  0  0  0  0  0  0  0  0
   -5.0898    5.3242  -18.4312 C   0  0  0  0  0  0  0  0  0  0  0  0
   -3.6742    5.5885  -19.0072 C   0  0  0  0  0  0  0  0  0  0  0  0
   -2.9202    6.8108  -18.5781 C   0  0  0  0  0  0  0  0  0  0  0  0
   -2.4831    5.4515  -18.1002 C   0  0  0  0  0  0  0  0  0  0  0  0
   -5.4313    5.4616  -17.1685 N   0  0  0  0  0  0  0  0  0  0  0  0
   -6.7317    5.0029  -17.0865 C   0  0  0  0  0  0  0  0  0  0  0  0
   -8.2834    3.5352  -11.4692 C   0  0  0  0  0  0  0  0  0  0  0  0
   -8.2900    3.5914  -10.0734 C   0  0  0  0  0  0  0  0  0  0  0  0
  1  2  1  0
  2  3  1  0
  2  4  1  0
  2  5  1  0
  5  6  1  0
  6  7  2  0
  6  8  1  0
  9  8  1  1
  9 10  1  0
 10 11  1  0
 11 12  1  0
 12 13  1  0
 13 14  2  0
 14 15  1  0
 15 16  2  0
 16 17  1  0
 17 18  1  0
 18 19  2  0
 18 20  1  0
 20 21  2  0
 21 22  1  0
 22 23  2  0
 23 24  1  0
 24 25  1  0
 25 26  1  0
 26 27  1  0
 27 28  1  0
 28 29  1  0
 26 30  2  0
 30 31  1  0
 16 32  1  0
 32 33  2  0
 33  9  1  0
 33 13  1  0
 31 20  1  0
 31 24  2  0
 29 27  1  0
M  END
>  <name>  (1163) 
P139705

>  <alias>  (1163) 
None

>  <smina_score_min>  (1163) 
-9.508

>  <exports>  (1163) 
['/opt/xchem-fragalysis-2/maxwin/BulkDock/OUTPUTS/openbind_xx01zvns2b_c2_elabs_1LOUTNY.sdf', '/opt/xchem-fragalysis-2/maxwin/BulkDock/OUTPUTS/openbind_xx01zvns2b_c2_elabs_1LSYIIV.sdf']

>  <tags>  (1163) 
syndirella_placed,openbind_xx01zvns2b_c2_elabs,openbind_xx01zvns2b_c2_elabs_scored_6.2plus,syndirella_product,openbind_xx01zvns2b_c2_elabs_scored,openbind_xx01zvns2b_c2_elabs_scored_top80percent,BulkDock Fragalysis export

>  <subsites>  (1163) 
1 - Z4590/B/203/1

>  <smiles>  (1163) 
CC(C)(C)OC(=O)N[C@H]1CCCc2ccc(NC(=O)c3cccc4[nH]c(C5CC5)nc34)cc21

>  <HIPPO Pose ID>  (1163) 
139705

>  <energy_score>  (1163) 
-58.948772

>  <inchikey>  (1163) 
NRZZSVRDEJKMKX-FQEVSTJZSA-N

>  <gnina_score_min>  (1163) 
6.806

>  <gnina_score>  (1163) 
6.753

>  <ref_mols>  (1163) 
Z3094a

>  <HIPPO Compound ID>  (1163) 
198144

>  <distance_score>  (1163) 
0.756144

>  <rmsd(smina/fragmenstein)>  (1163) 
0.581

>  <ref_pdb>  (1163) 
Z3094a

>  <inspiration_score>  (1163) 
None

$$$$
P139708
     RDKit          3D

 33 38  0  0  0  0  0  0  0  0999 V2000
   -7.1284    6.6625  -14.5705 O   0  0  0  0  0  0  0  0  0  0  0  0
   -7.5041    5.5578  -14.5619 C   0  0  0  0  0  0  0  0  0  0  0  0
   -7.9492    4.6601  -13.3844 N   0  0  0  0  0  0  0  0  0  0  0  0
   -8.1091    4.9550  -12.0307 C   0  0  0  0  0  0  0  0  0  0  0  0
   -8.1489    6.2695  -11.5608 C   0  0  0  0  0  0  0  0  0  0  0  0
   -8.0335    6.5473  -10.1832 C   0  0  0  0  0  0  0  0  0  0  0  0
   -7.7510    5.5252   -9.2778 C   0  0  0  0  0  0  0  0  0  0  0  0
   -7.6711    4.2398   -9.7850 C   0  0  0  0  0  0  0  0  0  0  0  0
   -8.0006    3.9437  -11.0913 C   0  0  0  0  0  0  0  0  0  0  0  0
   -7.4972    2.6184  -11.3717 C   0  0  0  0  0  0  0  0  0  0  0  0
   -7.7721    2.0059  -12.3851 O   0  0  0  0  0  0  0  0  0  0  0  0
   -6.5878    2.3198  -10.3973 N   0  0  0  0  0  0  0  0  0  0  0  0
   -5.3376    1.7503  -10.8900 C   0  0  2  0  0  0  0  0  0  0  0  0
   -4.4592    1.0786   -9.8577 C   0  0  0  0  0  0  0  0  0  0  0  0
   -3.2366    0.4388  -10.5160 C   0  0  0  0  0  0  0  0  0  0  0  0
   -2.7429    1.1594  -11.7658 C   0  0  0  0  0  0  0  0  0  0  0  0
   -3.1752    2.5288  -11.8142 N   0  0  0  0  0  0  0  0  0  0  0  0
   -4.4853    2.8622  -11.5612 C   0  0  0  0  0  0  0  0  0  0  0  0
   -4.8968    3.9730  -11.8832 O   0  0  0  0  0  0  0  0  0  0  0  0
   -6.6412    3.2621   -9.4010 C   0  0  0  0  0  0  0  0  0  0  0  0
   -5.8177    3.5147   -8.5362 O   0  0  0  0  0  0  0  0  0  0  0  0
   -7.7014    4.8751  -15.8698 C   0  0  0  0  0  0  0  0  0  0  0  0
   -8.9590    4.3003  -16.1291 C   0  0  0  0  0  0  0  0  0  0  0  0
   -9.3472    3.9291  -17.4155 C   0  0  0  0  0  0  0  0  0  0  0  0
   -8.4807    4.0703  -18.4882 C   0  0  0  0  0  0  0  0  0  0  0  0
   -7.2251    4.6019  -18.2086 C   0  0  0  0  0  0  0  0  0  0  0  0
   -6.1931    4.9118  -19.0478 N   0  0  0  0  0  0  0  0  0  0  0  0
   -5.1494    5.3471  -18.2868 C   0  0  0  0  0  0  0  0  0  0  0  0
   -3.7370    5.6230  -18.8673 C   0  0  0  0  0  0  0  0  0  0  0  0
   -2.9952    6.8561  -18.4498 C   0  0  0  0  0  0  0  0  0  0  0  0
   -2.5410    5.5046  -17.9648 C   0  0  0  0  0  0  0  0  0  0  0  0
   -5.4954    5.4737  -17.0234 N   0  0  0  0  0  0  0  0  0  0  0  0
   -6.7940    5.0001  -16.9416 C   0  0  0  0  0  0  0  0  0  0  0  0
  1  2  2  0
  2  3  1  0
  3  4  1  0
  4  5  2  0
  5  6  1  0
  6  7  2  0
  7  8  1  0
  8  9  2  0
  9 10  1  0
 10 11  2  0
 10 12  1  0
 13 12  1  1
 13 14  1  0
 14 15  1  0
 15 16  1  0
 16 17  1  0
 17 18  1  0
 18 19  2  0
 12 20  1  0
 20 21  2  0
  2 22  1  0
 22 23  2  0
 23 24  1  0
 24 25  2  0
 25 26  1  0
 26 27  1  0
 27 28  1  0
 28 29  1  0
 29 30  1  0
 30 31  1  0
 28 32  2  0
 32 33  1  0
  9  4  1  0
 18 13  1  0
 33 22  1  0
 20  8  1  0
 33 26  2  0
 31 29  1  0
M  END
>  <name>  (1164) 
P139708

>  <alias>  (1164) 
None

>  <smina_score_min>  (1164) 
-9.341

>  <exports>  (1164) 
['/opt/xchem-fragalysis-2/maxwin/BulkDock/OUTPUTS/openbind_xx01zvns2b_c2_elabs_1LOUTNY.sdf', '/opt/xchem-fragalysis-2/maxwin/BulkDock/OUTPUTS/openbind_xx01zvns2b_c2_elabs_1LSYIIV.sdf']

>  <tags>  (1164) 
syndirella_placed,openbind_xx01zvns2b_c2_elabs,openbind_xx01zvns2b_c2_elabs_scored_6.2plus,syndirella_product,openbind_xx01zvns2b_c2_elabs_scored,openbind_xx01zvns2b_c2_elabs_scored_top80percent,BulkDock Fragalysis export

>  <subsites>  (1164) 
1 - Z4590/B/203/1

>  <smiles>  (1164) 
O=C(Nc1cccc2c1C(=O)N([C@@H]1CCCNC1=O)C2=O)c1cccc2[nH]c(C3CC3)nc12

>  <HIPPO Pose ID>  (1164) 
139708

>  <energy_score>  (1164) 
-13.6463

>  <inchikey>  (1164) 
KRZLPPSMXCQCOE-QGZVFWFLSA-N

>  <gnina_score_min>  (1164) 
6.526

>  <gnina_score>  (1164) 
6.527

>  <ref_mols>  (1164) 
Z3094a

>  <HIPPO Compound ID>  (1164) 
198146

>  <distance_score>  (1164) 
1.154437

>  <rmsd(smina/fragmenstein)>  (1164) 
0.578

>  <ref_pdb>  (1164) 
Z3094a

>  <inspiration_score>  (1164) 
None

$$$$
P139710
     RDKit          3D

 33 37  0  0  0  0  0  0  0  0999 V2000
   -4.9243    4.9444  -14.5983 O   0  0  0  0  0  0  0  0  0  0  0  0
   -6.0585    5.3125  -14.6505 C   0  0  0  0  0  0  0  0  0  0  0  0
   -6.8352    6.0789  -13.7260 N   0  0  0  0  0  0  0  0  0  0  0  0
   -6.4701    6.7211  -12.4978 C   0  0  0  0  0  0  0  0  0  0  0  0
   -6.8084    5.8628  -11.3109 C   0  0  0  0  0  0  0  0  0  0  0  0
   -7.8227    6.2261  -10.4168 C   0  0  0  0  0  0  0  0  0  0  0  0
   -8.0736    5.4531   -9.2817 C   0  0  0  0  0  0  0  0  0  0  0  0
   -7.3075    4.3208   -9.0180 C   0  0  0  0  0  0  0  0  0  0  0  0
   -6.2846    3.9628   -9.8928 C   0  0  0  0  0  0  0  0  0  0  0  0
   -5.3869    2.9193   -9.5088 N   0  0  0  0  0  0  0  0  0  0  0  0
   -3.7988    3.4149   -9.1424 S   0  0  0  0  0  0  0  0  0  0  0  0
   -3.6513    4.8490   -9.2777 O   0  0  0  0  0  0  0  0  0  0  0  0
   -3.4183    2.7579   -7.9111 O   0  0  0  0  0  0  0  0  0  0  0  0
   -2.8091    2.6346  -10.3924 C   0  0  0  0  0  0  0  0  0  0  0  0
   -1.8017    3.3664  -11.0289 C   0  0  0  0  0  0  0  0  0  0  0  0
   -0.8729    2.6988  -11.8288 C   0  0  0  0  0  0  0  0  0  0  0  0
   -0.9633    1.3153  -11.9891 C   0  0  0  0  0  0  0  0  0  0  0  0
    0.2647    0.4763  -12.8534 Cl  0  0  0  0  0  0  0  0  0  0  0  0
   -2.0084    0.5997  -11.4084 C   0  0  0  0  0  0  0  0  0  0  0  0
   -2.9350    1.2577  -10.5997 C   0  0  0  0  0  0  0  0  0  0  0  0
   -6.0602    4.7042  -11.0535 C   0  0  0  0  0  0  0  0  0  0  0  0
   -6.8649    4.9195  -15.8368 C   0  0  0  0  0  0  0  0  0  0  0  0
   -8.1537    4.3729  -15.6792 C   0  0  0  0  0  0  0  0  0  0  0  0
   -8.9405    4.0720  -16.7909 C   0  0  0  0  0  0  0  0  0  0  0  0
   -8.4654    4.2495  -18.0897 C   0  0  0  0  0  0  0  0  0  0  0  0
   -7.1821    4.7781  -18.2159 C   0  0  0  0  0  0  0  0  0  0  0  0
   -6.4488    5.1048  -19.3263 N   0  0  0  0  0  0  0  0  0  0  0  0
   -5.2472    5.5974  -18.9042 C   0  0  0  0  0  0  0  0  0  0  0  0
   -4.0738    5.9889  -19.8424 C   0  0  0  0  0  0  0  0  0  0  0  0
   -2.7661    5.2588  -19.6725 C   0  0  0  0  0  0  0  0  0  0  0  0
   -2.8767    6.7021  -19.2730 C   0  0  0  0  0  0  0  0  0  0  0  0
   -5.1971    5.6846  -17.5945 N   0  0  0  0  0  0  0  0  0  0  0  0
   -6.3707    5.1258  -17.1377 C   0  0  0  0  0  0  0  0  0  0  0  0
  1  2  2  0
  2  3  1  0
  3  4  1  0
  4  5  1  0
  5  6  2  0
  6  7  1  0
  7  8  2  0
  8  9  1  0
  9 10  1  0
 10 11  1  0
 11 12  2  0
 11 13  2  0
 11 14  1  0
 14 15  2  0
 15 16  1  0
 16 17  2  0
 17 18  1  0
 17 19  1  0
 19 20  2  0
  9 21  2  0
  2 22  1  0
 22 23  2  0
 23 24  1  0
 24 25  2  0
 25 26  1  0
 26 27  1  0
 27 28  1  0
 28 29  1  0
 29 30  1  0
 30 31  1  0
 28 32  2  0
 32 33  1  0
 21  5  1  0
 33 22  1  0
 20 14  1  0
 33 26  2  0
 31 29  1  0
M  END
>  <name>  (1165) 
P139710

>  <alias>  (1165) 
None

>  <smina_score_min>  (1165) 
-8.372

>  <exports>  (1165) 
['/opt/xchem-fragalysis-2/maxwin/BulkDock/OUTPUTS/openbind_xx01zvns2b_c2_elabs_1LOUTNY.sdf', '/opt/xchem-fragalysis-2/maxwin/BulkDock/OUTPUTS/openbind_xx01zvns2b_c2_elabs_1LSYIIV.sdf']

>  <tags>  (1165) 
syndirella_placed,openbind_xx01zvns2b_c2_elabs,openbind_xx01zvns2b_c2_elabs_scored_6.2plus,syndirella_product,openbind_xx01zvns2b_c2_elabs_scored,openbind_xx01zvns2b_c2_elabs_scored_top80percent,BulkDock Fragalysis export

>  <subsites>  (1165) 
1 - Z4590/B/203/1

>  <smiles>  (1165) 
O=C(NCc1cccc(NS(=O)(=O)c2ccc(Cl)cc2)c1)c1cccc2[nH]c(C3CC3)nc12

>  <HIPPO Pose ID>  (1165) 
139710

>  <energy_score>  (1165) 
-37.559486

>  <inchikey>  (1165) 
GQEUPAMSXFQWCY-UHFFFAOYSA-N

>  <gnina_score_min>  (1165) 
6.484

>  <gnina_score>  (1165) 
6.377

>  <ref_mols>  (1165) 
Z3094a

>  <HIPPO Compound ID>  (1165) 
198150

>  <distance_score>  (1165) 
1.803321

>  <rmsd(smina/fragmenstein)>  (1165) 
1.42

>  <ref_pdb>  (1165) 
Z3094a

>  <inspiration_score>  (1165) 
None

$$$$
P139711
     RDKit          3D

 33 37  0  0  0  0  0  0  0  0999 V2000
   -7.6661    7.4607  -11.5276 C   0  0  0  0  0  0  0  0  0  0  0  0
   -8.4217    6.2629  -11.7070 O   0  0  0  0  0  0  0  0  0  0  0  0
   -7.7418    5.1723  -11.2391 C   0  0  0  0  0  0  0  0  0  0  0  0
   -7.5783    5.0370   -9.8502 C   0  0  0  0  0  0  0  0  0  0  0  0
   -6.8943    3.9405   -9.3273 C   0  0  0  0  0  0  0  0  0  0  0  0
   -6.4169    2.9667  -10.2035 C   0  0  0  0  0  0  0  0  0  0  0  0
   -5.4045    1.9671   -9.7825 C   0  0  0  0  0  0  0  0  0  0  0  0
   -5.6782    0.8429   -9.6726 O   0  0  0  0  0  0  0  0  0  0  0  0
   -4.0457    2.6807   -9.6534 N   0  0  0  0  0  0  0  0  0  0  0  0
   -2.7141    2.1419   -9.4540 C   0  0  1  0  0  0  0  0  0  0  0  0
   -2.5735    0.6875   -9.9140 C   0  0  0  0  0  0  0  0  0  0  0  0
   -2.5855    0.7038  -11.4349 C   0  0  0  0  0  0  0  0  0  0  0  0
   -1.6369    2.1488  -11.8627 S   0  0  0  0  0  0  0  0  0  0  0  0
   -2.3954    2.9685  -12.7840 O   0  0  0  0  0  0  0  0  0  0  0  0
   -0.2736    1.7422  -12.1481 O   0  0  0  0  0  0  0  0  0  0  0  0
   -1.6696    2.9210  -10.2516 C   0  0  0  0  0  0  0  0  0  0  0  0
   -6.6882    3.0336  -11.5691 C   0  0  0  0  0  0  0  0  0  0  0  0
   -7.3210    4.1525  -12.1069 C   0  0  0  0  0  0  0  0  0  0  0  0
   -7.4559    4.1587  -13.4980 N   0  0  0  0  0  0  0  0  0  0  0  0
   -7.6097    5.3333  -14.4838 C   0  0  0  0  0  0  0  0  0  0  0  0
   -7.7252    6.4762  -14.2855 O   0  0  0  0  0  0  0  0  0  0  0  0
   -7.7093    4.8286  -15.8616 C   0  0  0  0  0  0  0  0  0  0  0  0
   -8.8969    4.1911  -16.2502 C   0  0  0  0  0  0  0  0  0  0  0  0
   -9.1171    3.8370  -17.5792 C   0  0  0  0  0  0  0  0  0  0  0  0
   -8.1479    4.0745  -18.5508 C   0  0  0  0  0  0  0  0  0  0  0  0
   -6.9667    4.6885  -18.1308 C   0  0  0  0  0  0  0  0  0  0  0  0
   -5.8471    5.0661  -18.8198 N   0  0  0  0  0  0  0  0  0  0  0  0
   -4.9666    5.6138  -17.9292 C   0  0  0  0  0  0  0  0  0  0  0  0
   -3.5386    6.1223  -18.2534 C   0  0  0  0  0  0  0  0  0  0  0  0
   -3.0386    6.1986  -19.6699 C   0  0  0  0  0  0  0  0  0  0  0  0
   -2.5154    5.1341  -18.7451 C   0  0  0  0  0  0  0  0  0  0  0  0
   -5.4757    5.6673  -16.7194 N   0  0  0  0  0  0  0  0  0  0  0  0
   -6.7157    5.0767  -16.8161 C   0  0  0  0  0  0  0  0  0  0  0  0
  1  2  1  0
  2  3  1  0
  3  4  2  0
  4  5  1  0
  5  6  2  0
  6  7  1  0
  7  8  2  0
  7  9  1  0
 10  9  1  6
 10 11  1  0
 11 12  1  0
 12 13  1  0
 13 14  2  0
 13 15  2  0
 13 16  1  0
  6 17  1  0
 17 18  2  0
 18 19  1  0
 19 20  1  0
 20 21  2  0
 20 22  1  0
 22 23  2  0
 23 24  1  0
 24 25  2  0
 25 26  1  0
 26 27  1  0
 27 28  1  0
 28 29  1  0
 29 30  1  0
 30 31  1  0
 28 32  2  0
 32 33  1  0
 18  3  1  0
 33 22  1  0
 16 10  1  0
 33 26  2  0
 31 29  1  0
M  END
>  <name>  (1166) 
P139711

>  <alias>  (1166) 
None

>  <smina_score_min>  (1166) 
-8.486

>  <exports>  (1166) 
['/opt/xchem-fragalysis-2/maxwin/BulkDock/OUTPUTS/openbind_xx01zvns2b_c2_elabs_1LOUTNY.sdf', '/opt/xchem-fragalysis-2/maxwin/BulkDock/OUTPUTS/openbind_xx01zvns2b_c2_elabs_1LSYIIV.sdf']

>  <tags>  (1166) 
syndirella_placed,openbind_xx01zvns2b_c2_elabs,openbind_xx01zvns2b_c2_elabs_scored_6.2plus,syndirella_product,openbind_xx01zvns2b_c2_elabs_scored,openbind_xx01zvns2b_c2_elabs_scored_top80percent,BulkDock Fragalysis export

>  <subsites>  (1166) 
1 - Z4590/B/203/1

>  <smiles>  (1166) 
COc1ccc(C(=O)N[C@H]2CCS(=O)(=O)C2)cc1NC(=O)c1cccc2[nH]c(C3CC3)nc12

>  <HIPPO Pose ID>  (1166) 
139711

>  <energy_score>  (1166) 
-10.814258

>  <inchikey>  (1166) 
OVNKFWUOQGBNML-HNNXBMFYSA-N

>  <gnina_score_min>  (1166) 
6.636

>  <gnina_score>  (1166) 
6.367

>  <ref_mols>  (1166) 
Z3094a

>  <HIPPO Compound ID>  (1166) 
198151

>  <distance_score>  (1166) 
1.59252

>  <rmsd(smina/fragmenstein)>  (1166) 
0.772

>  <ref_pdb>  (1166) 
Z3094a

>  <inspiration_score>  (1166) 
None

$$$$
P139712
     RDKit          3D

 33 38  0  0  0  0  0  0  0  0999 V2000
   -7.4060    6.3435   -4.1630 C   0  0  0  0  0  0  0  0  0  0  0  0
   -8.4566    5.5196   -4.9227 C   0  0  0  0  0  0  0  0  0  0  0  0
   -8.9051    4.2952   -4.1261 C   0  0  0  0  0  0  0  0  0  0  0  0
   -9.6491    6.4379   -5.2030 C   0  0  0  0  0  0  0  0  0  0  0  0
   -8.0207    5.1261   -6.2419 O   0  0  0  0  0  0  0  0  0  0  0  0
   -6.8093    4.5649   -6.4325 C   0  0  0  0  0  0  0  0  0  0  0  0
   -6.0399    4.1907   -5.5525 O   0  0  0  0  0  0  0  0  0  0  0  0
   -6.5106    4.5567   -7.7452 N   0  0  0  0  0  0  0  0  0  0  0  0
   -6.7085    3.5137   -8.7461 C   0  0  2  0  0  0  0  0  0  0  0  0
   -5.2224    3.3573   -9.1686 C   0  0  0  0  0  0  0  0  0  0  0  0
   -4.6646    4.8293   -8.9913 C   0  0  0  0  0  0  0  0  0  0  0  0
   -5.9082    5.6069   -8.4883 C   0  0  1  0  0  0  0  0  0  0  0  0
   -6.8710    5.6571   -9.6511 C   0  0  0  0  0  0  0  0  0  0  0  0
   -7.0756    6.6738  -10.5413 C   0  0  0  0  0  0  0  0  0  0  0  0
   -7.5581    6.2993  -11.7842 C   0  0  0  0  0  0  0  0  0  0  0  0
   -7.8284    4.9479  -12.1043 C   0  0  0  0  0  0  0  0  0  0  0  0
   -7.9033    4.6395  -13.4606 N   0  0  0  0  0  0  0  0  0  0  0  0
   -7.4113    5.4302  -14.7020 C   0  0  0  0  0  0  0  0  0  0  0  0
   -6.9374    6.4957  -14.7821 O   0  0  0  0  0  0  0  0  0  0  0  0
   -7.6865    4.7419  -15.9806 C   0  0  0  0  0  0  0  0  0  0  0  0
   -8.9687    4.2237  -16.2172 C   0  0  0  0  0  0  0  0  0  0  0  0
   -9.3861    3.8869  -17.5044 C   0  0  0  0  0  0  0  0  0  0  0  0
   -8.5304    4.0159  -18.5910 C   0  0  0  0  0  0  0  0  0  0  0  0
   -7.2534    4.5037  -18.3300 C   0  0  0  0  0  0  0  0  0  0  0  0
   -6.2226    4.8064  -19.1755 N   0  0  0  0  0  0  0  0  0  0  0  0
   -5.1612    5.2088  -18.4182 C   0  0  0  0  0  0  0  0  0  0  0  0
   -3.7494    5.4879  -18.9990 C   0  0  0  0  0  0  0  0  0  0  0  0
   -2.5604    5.4556  -18.0796 C   0  0  0  0  0  0  0  0  0  0  0  0
   -3.0480    6.7644  -18.6421 C   0  0  0  0  0  0  0  0  0  0  0  0
   -5.4869    5.3026  -17.1479 N   0  0  0  0  0  0  0  0  0  0  0  0
   -6.7936    4.8588  -17.0648 C   0  0  0  0  0  0  0  0  0  0  0  0
   -7.8217    3.9517  -11.1227 C   0  0  0  0  0  0  0  0  0  0  0  0
   -7.3130    4.3288   -9.8880 C   0  0  0  0  0  0  0  0  0  0  0  0
  1  2  1  0
  2  3  1  0
  2  4  1  0
  2  5  1  0
  5  6  1  0
  6  7  2  0
  6  8  1  0
  8  9  1  0
  9 10  1  6
 10 11  1  0
 12 11  1  6
 12 13  1  0
 13 14  2  0
 14 15  1  0
 15 16  2  0
 16 17  1  0
 17 18  1  0
 18 19  2  0
 18 20  1  0
 20 21  2  0
 21 22  1  0
 22 23  2  0
 23 24  1  0
 24 25  1  0
 25 26  1  0
 26 27  1  0
 27 28  1  0
 28 29  1  0
 26 30  2  0
 30 31  1  0
 16 32  1  0
 32 33  2  0
 12  8  1  0
 33 13  1  0
 33  9  1  0
 31 20  1  0
 31 24  2  0
 29 27  1  0
M  END
>  <name>  (1167) 
P139712

>  <alias>  (1167) 
None

>  <smina_score_min>  (1167) 
-8.514

>  <exports>  (1167) 
['/opt/xchem-fragalysis-2/maxwin/BulkDock/OUTPUTS/openbind_xx01zvns2b_c2_elabs_1LOUTNY.sdf', '/opt/xchem-fragalysis-2/maxwin/BulkDock/OUTPUTS/openbind_xx01zvns2b_c2_elabs_1LSYIIV.sdf']

>  <tags>  (1167) 
syndirella_placed,openbind_xx01zvns2b_c2_elabs,openbind_xx01zvns2b_c2_elabs_scored_6.2plus,syndirella_product,openbind_xx01zvns2b_c2_elabs_scored,openbind_xx01zvns2b_c2_elabs_scored_top80percent,BulkDock Fragalysis export

>  <subsites>  (1167) 
1 - Z4590/B/203/1

>  <smiles>  (1167) 
CC(C)(C)OC(=O)N1[C@@H]2CC[C@H]1c1ccc(NC(=O)c3cccc4[nH]c(C5CC5)nc34)cc12

>  <HIPPO Pose ID>  (1167) 
139712

>  <energy_score>  (1167) 
-0.368317

>  <inchikey>  (1167) 
DYFBJBAGFUEIRZ-LEWJYISDSA-N

>  <gnina_score_min>  (1167) 
6.355

>  <gnina_score>  (1167) 
6.373

>  <ref_mols>  (1167) 
Z3094a

>  <HIPPO Compound ID>  (1167) 
198152

>  <distance_score>  (1167) 
1.31419

>  <rmsd(smina/fragmenstein)>  (1167) 
0.957

>  <ref_pdb>  (1167) 
Z3094a

>  <inspiration_score>  (1167) 
None

$$$$
P139715
     RDKit          3D

 33 38  0  0  0  0  0  0  0  0999 V2000
   -6.0991    4.3433   -5.2513 O   0  0  0  0  0  0  0  0  0  0  0  0
   -6.8679    4.0631   -6.1784 C   0  0  0  0  0  0  0  0  0  0  0  0
   -8.2307    3.4412   -5.9421 C   0  0  0  0  0  0  0  0  0  0  0  0
   -8.7206    2.4645   -7.0215 C   0  0  0  0  0  0  0  0  0  0  0  0
   -8.0404    2.5575   -8.4043 C   0  0  1  0  0  0  0  0  0  0  0  0
   -8.8049    3.3455   -9.3629 N   0  0  0  0  0  0  0  0  0  0  0  0
   -8.4588    3.3093  -10.8023 C   0  0  0  0  0  0  0  0  0  0  0  0
   -8.1319    4.7301  -11.1168 C   0  0  0  0  0  0  0  0  0  0  0  0
   -7.6349    5.3936  -12.2121 C   0  0  0  0  0  0  0  0  0  0  0  0
   -7.6134    4.8881  -13.5036 N   0  0  0  0  0  0  0  0  0  0  0  0
   -7.0576    5.4999  -14.8140 C   0  0  0  0  0  0  0  0  0  0  0  0
   -6.4632    6.4893  -14.9948 O   0  0  0  0  0  0  0  0  0  0  0  0
   -7.4409    4.7343  -16.0215 C   0  0  0  0  0  0  0  0  0  0  0  0
   -8.7649    4.2712  -16.1581 C   0  0  0  0  0  0  0  0  0  0  0  0
   -9.2830    3.9305  -17.4087 C   0  0  0  0  0  0  0  0  0  0  0  0
   -8.5075    4.0271  -18.5592 C   0  0  0  0  0  0  0  0  0  0  0  0
   -7.2017    4.4825  -18.3985 C   0  0  0  0  0  0  0  0  0  0  0  0
   -6.2377    4.7928  -19.3199 N   0  0  0  0  0  0  0  0  0  0  0  0
   -5.1157    5.1748  -18.6420 C   0  0  0  0  0  0  0  0  0  0  0  0
   -3.7506    5.4882  -19.3076 C   0  0  0  0  0  0  0  0  0  0  0  0
   -2.9862    6.7048  -18.8755 C   0  0  0  0  0  0  0  0  0  0  0  0
   -2.4964    5.3351  -18.4889 C   0  0  0  0  0  0  0  0  0  0  0  0
   -5.3330    5.2297  -17.3487 N   0  0  0  0  0  0  0  0  0  0  0  0
   -6.6358    4.8141  -17.1721 C   0  0  0  0  0  0  0  0  0  0  0  0
   -7.2698    6.7482  -12.0555 C   0  0  0  0  0  0  0  0  0  0  0  0
   -7.4731    7.4577  -10.8675 C   0  0  0  0  0  0  0  0  0  0  0  0
   -8.0748    6.8287   -9.8075 C   0  0  0  0  0  0  0  0  0  0  0  0
   -8.3859    5.4967   -9.9841 C   0  0  0  0  0  0  0  0  0  0  0  0
   -8.9102    4.6626   -8.9415 C   0  0  0  0  0  0  0  0  0  0  0  0
   -9.1564    5.1246   -7.8428 O   0  0  0  0  0  0  0  0  0  0  0  0
   -6.6394    3.2306   -8.3967 C   0  0  0  0  0  0  0  0  0  0  0  0
   -5.7707    3.0065   -9.2431 O   0  0  0  0  0  0  0  0  0  0  0  0
   -6.4412    4.2231   -7.4654 N   0  0  0  0  0  0  0  0  0  0  0  0
  1  2  2  0
  2  3  1  0
  3  4  1  0
  4  5  1  0
  5  6  1  6
  6  7  1  0
  7  8  1  0
  8  9  2  0
  9 10  1  0
 10 11  1  0
 11 12  2  0
 11 13  1  0
 13 14  2  0
 14 15  1  0
 15 16  2  0
 16 17  1  0
 17 18  1  0
 18 19  1  0
 19 20  1  0
 20 21  1  0
 21 22  1  0
 19 23  2  0
 23 24  1  0
  9 25  1  0
 25 26  2  0
 26 27  1  0
 27 28  2  0
 28 29  1  0
 29 30  2  0
  5 31  1  0
 31 32  2  0
 31 33  1  0
 33  2  1  0
 29  6  1  0
 28  8  1  0
 24 13  1  0
 24 17  2  0
 22 20  1  0
M  END
>  <name>  (1168) 
P139715

>  <alias>  (1168) 
None

>  <smina_score_min>  (1168) 
-7.773

>  <exports>  (1168) 
['/opt/xchem-fragalysis-2/maxwin/BulkDock/OUTPUTS/openbind_xx01zvns2b_c2_elabs_1LOUTNY.sdf', '/opt/xchem-fragalysis-2/maxwin/BulkDock/OUTPUTS/openbind_xx01zvns2b_c2_elabs_1LSYIIV.sdf']

>  <tags>  (1168) 
syndirella_placed,openbind_xx01zvns2b_c2_elabs,openbind_xx01zvns2b_c2_elabs_scored_6.2plus,syndirella_product,openbind_xx01zvns2b_c2_elabs_scored,openbind_xx01zvns2b_c2_elabs_scored_top80percent,BulkDock Fragalysis export

>  <subsites>  (1168) 
1 - Z4590/B/203/1

>  <smiles>  (1168) 
O=C1CC[C@@H](N2Cc3c(NC(=O)c4cccc5[nH]c(C6CC6)nc45)cccc3C2=O)C(=O)N1

>  <HIPPO Pose ID>  (1168) 
139715

>  <energy_score>  (1168) 
-13.351732

>  <inchikey>  (1168) 
ROLOFTTULMBWOQ-GOSISDBHSA-N

>  <gnina_score_min>  (1168) 
6.532

>  <gnina_score>  (1168) 
6.398

>  <ref_mols>  (1168) 
Z3094a

>  <HIPPO Compound ID>  (1168) 
198161

>  <distance_score>  (1168) 
1.344577

>  <rmsd(smina/fragmenstein)>  (1168) 
2.587

>  <ref_pdb>  (1168) 
Z3094a

>  <inspiration_score>  (1168) 
None

$$$$
P139716
     RDKit          3D

 33 37  0  0  0  0  0  0  0  0999 V2000
   -4.1212    3.4289  -12.1325 C   0  0  0  0  0  0  0  0  0  0  0  0
   -5.1730    4.0462  -11.2559 C   0  0  0  0  0  0  0  0  0  0  0  0
   -4.9109    4.0012   -9.8686 C   0  0  0  0  0  0  0  0  0  0  0  0
   -5.8293    4.4602   -8.9309 C   0  0  0  0  0  0  0  0  0  0  0  0
   -7.0499    4.9638   -9.3635 C   0  0  0  0  0  0  0  0  0  0  0  0
   -8.0307    5.5267   -8.3823 C   0  0  0  0  0  0  0  0  0  0  0  0
   -8.5966    6.5241   -8.7327 O   0  0  0  0  0  0  0  0  0  0  0  0
   -8.1113    4.7811   -7.1513 N   0  0  0  0  0  0  0  0  0  0  0  0
   -8.7993    5.0426   -5.9647 C   0  0  0  0  0  0  0  0  0  0  0  0
   -9.6480    6.1383   -5.8159 C   0  0  0  0  0  0  0  0  0  0  0  0
  -10.3569    6.3045   -4.6239 C   0  0  0  0  0  0  0  0  0  0  0  0
  -11.5343    7.7728   -4.4315 Br  0  0  0  0  0  0  0  0  0  0  0  0
  -10.2144    5.3988   -3.5708 C   0  0  0  0  0  0  0  0  0  0  0  0
   -9.3440    4.3185   -3.7034 C   0  0  0  0  0  0  0  0  0  0  0  0
   -8.6414    4.1528   -4.8930 C   0  0  0  0  0  0  0  0  0  0  0  0
   -7.7370    3.1343   -4.9964 O   0  0  0  0  0  0  0  0  0  0  0  0
   -7.3134    5.0447  -10.7436 C   0  0  0  0  0  0  0  0  0  0  0  0
   -6.3751    4.6183  -11.7084 C   0  0  0  0  0  0  0  0  0  0  0  0
   -6.7852    4.7766  -13.0495 N   0  0  0  0  0  0  0  0  0  0  0  0
   -6.0375    4.6908  -14.2920 C   0  0  0  0  0  0  0  0  0  0  0  0
   -4.8652    4.5416  -14.4900 O   0  0  0  0  0  0  0  0  0  0  0  0
   -6.9133    4.6936  -15.5260 C   0  0  0  0  0  0  0  0  0  0  0  0
   -8.2475    4.2295  -15.4966 C   0  0  0  0  0  0  0  0  0  0  0  0
   -9.0113    4.1053  -16.6606 C   0  0  0  0  0  0  0  0  0  0  0  0
   -8.4809    4.3800  -17.9141 C   0  0  0  0  0  0  0  0  0  0  0  0
   -7.1743    4.8521  -17.9347 C   0  0  0  0  0  0  0  0  0  0  0  0
   -6.3924    5.2393  -18.9918 N   0  0  0  0  0  0  0  0  0  0  0  0
   -5.1735    5.5979  -18.4942 C   0  0  0  0  0  0  0  0  0  0  0  0
   -3.9527    6.0067  -19.3642 C   0  0  0  0  0  0  0  0  0  0  0  0
   -2.6506    5.2811  -19.1419 C   0  0  0  0  0  0  0  0  0  0  0  0
   -2.7918    6.7160  -18.7215 C   0  0  0  0  0  0  0  0  0  0  0  0
   -5.1516    5.5300  -17.1817 N   0  0  0  0  0  0  0  0  0  0  0  0
   -6.3810    5.0283  -16.7985 C   0  0  0  0  0  0  0  0  0  0  0  0
  1  2  1  0
  2  3  2  0
  3  4  1  0
  4  5  2  0
  5  6  1  0
  6  7  2  0
  6  8  1  0
  8  9  1  0
  9 10  2  0
 10 11  1  0
 11 12  1  0
 11 13  2  0
 13 14  1  0
 14 15  2  0
 15 16  1  0
  5 17  1  0
 17 18  2  0
 18 19  1  0
 19 20  1  0
 20 21  2  0
 20 22  1  0
 22 23  2  0
 23 24  1  0
 24 25  2  0
 25 26  1  0
 26 27  1  0
 27 28  1  0
 28 29  1  0
 29 30  1  0
 30 31  1  0
 28 32  2  0
 32 33  1  0
 18  2  1  0
 33 22  1  0
 15  9  1  0
 33 26  2  0
 31 29  1  0
M  END
>  <name>  (1169) 
P139716

>  <alias>  (1169) 
None

>  <smina_score_min>  (1169) 
-10.206

>  <exports>  (1169) 
['/opt/xchem-fragalysis-2/maxwin/BulkDock/OUTPUTS/openbind_xx01zvns2b_c2_elabs_1LOUTNY.sdf', '/opt/xchem-fragalysis-2/maxwin/BulkDock/OUTPUTS/openbind_xx01zvns2b_c2_elabs_1LSYIIV.sdf']

>  <tags>  (1169) 
syndirella_placed,openbind_xx01zvns2b_c2_elabs,openbind_xx01zvns2b_c2_elabs_scored_6.2plus,syndirella_product,openbind_xx01zvns2b_c2_elabs_scored,openbind_xx01zvns2b_c2_elabs_scored_top80percent,BulkDock Fragalysis export

>  <subsites>  (1169) 
1 - Z4590/B/203/1

>  <smiles>  (1169) 
Cc1ccc(C(=O)Nc2cc(Br)ccc2O)cc1NC(=O)c1cccc2[nH]c(C3CC3)nc12

>  <HIPPO Pose ID>  (1169) 
139716

>  <energy_score>  (1169) 
-30.430309

>  <inchikey>  (1169) 
PLKLAQDKJZQKMY-UHFFFAOYSA-N

>  <gnina_score_min>  (1169) 
6.224

>  <gnina_score>  (1169) 
6.216

>  <ref_mols>  (1169) 
Z3094a

>  <HIPPO Compound ID>  (1169) 
198164

>  <distance_score>  (1169) 
1.906329

>  <rmsd(smina/fragmenstein)>  (1169) 
1.624

>  <ref_pdb>  (1169) 
Z3094a

>  <inspiration_score>  (1169) 
None

$$$$
P139718
     RDKit          3D

 33 38  0  0  0  0  0  0  0  0999 V2000
   -2.3570    5.6463   -7.8347 C   0  0  0  0  0  0  0  0  0  0  0  0
   -1.6465    4.5519   -8.6397 C   0  0  0  0  0  0  0  0  0  0  0  0
   -0.6592    5.1341   -9.6568 C   0  0  0  0  0  0  0  0  0  0  0  0
   -0.8725    3.6526   -7.6636 C   0  0  0  0  0  0  0  0  0  0  0  0
   -2.6016    3.6650   -9.2730 O   0  0  0  0  0  0  0  0  0  0  0  0
   -3.4808    4.1292  -10.2064 C   0  0  0  0  0  0  0  0  0  0  0  0
   -3.5102    5.2367  -10.5859 O   0  0  0  0  0  0  0  0  0  0  0  0
   -4.3475    2.9672  -10.5526 N   0  0  0  0  0  0  0  0  0  0  0  0
   -5.5606    2.8726   -9.6070 C   0  0  2  0  0  0  0  0  0  0  0  0
   -6.1248    1.4760   -9.8396 C   0  0  0  0  0  0  0  0  0  0  0  0
   -6.0840    1.4547  -11.3504 C   0  0  0  0  0  0  0  0  0  0  0  0
   -5.4757    2.8323  -11.5845 C   0  0  1  0  0  0  0  0  0  0  0  0
   -6.4816    3.9078  -11.3491 C   0  0  0  0  0  0  0  0  0  0  0  0
   -7.2511    4.7304  -12.1227 C   0  0  0  0  0  0  0  0  0  0  0  0
   -7.2752    4.6360  -13.5074 N   0  0  0  0  0  0  0  0  0  0  0  0
   -8.2358    5.2583  -14.5349 C   0  0  0  0  0  0  0  0  0  0  0  0
   -9.1149    6.0122  -14.3893 O   0  0  0  0  0  0  0  0  0  0  0  0
   -8.0302    4.7218  -15.8921 C   0  0  0  0  0  0  0  0  0  0  0  0
   -9.1236    4.0656  -16.4707 C   0  0  0  0  0  0  0  0  0  0  0  0
   -9.1438    3.7107  -17.8122 C   0  0  0  0  0  0  0  0  0  0  0  0
   -8.0570    3.9858  -18.6288 C   0  0  0  0  0  0  0  0  0  0  0  0
   -6.9598    4.6028  -18.0290 C   0  0  0  0  0  0  0  0  0  0  0  0
   -5.7674    5.0058  -18.5566 N   0  0  0  0  0  0  0  0  0  0  0  0
   -5.0204    5.5476  -17.5510 C   0  0  0  0  0  0  0  0  0  0  0  0
   -3.5712    6.0800  -17.7130 C   0  0  0  0  0  0  0  0  0  0  0  0
   -2.5512    5.2323  -18.4272 C   0  0  0  0  0  0  0  0  0  0  0  0
   -3.0568    6.4956  -19.0672 C   0  0  0  0  0  0  0  0  0  0  0  0
   -5.6817    5.5648  -16.4125 N   0  0  0  0  0  0  0  0  0  0  0  0
   -6.8987    4.9704  -16.6832 C   0  0  0  0  0  0  0  0  0  0  0  0
   -8.0553    5.6490  -11.4422 C   0  0  0  0  0  0  0  0  0  0  0  0
   -8.1085    5.6816  -10.0316 C   0  0  0  0  0  0  0  0  0  0  0  0
   -7.3661    4.7837   -9.2736 C   0  0  0  0  0  0  0  0  0  0  0  0
   -6.5499    3.9297   -9.9735 C   0  0  0  0  0  0  0  0  0  0  0  0
  1  2  1  0
  2  3  1  0
  2  4  1  0
  2  5  1  0
  5  6  1  0
  6  7  2  0
  6  8  1  0
  8  9  1  0
  9 10  1  6
 10 11  1  0
 12 11  1  1
 12 13  1  0
 13 14  2  0
 14 15  1  0
 15 16  1  0
 16 17  2  0
 16 18  1  0
 18 19  2  0
 19 20  1  0
 20 21  2  0
 21 22  1  0
 22 23  1  0
 23 24  1  0
 24 25  1  0
 25 26  1  0
 26 27  1  0
 24 28  2  0
 28 29  1  0
 14 30  1  0
 30 31  2  0
 31 32  1  0
 32 33  2  0
 12  8  1  0
 33 13  1  0
 33  9  1  0
 29 18  1  0
 29 22  2  0
 27 25  1  0
M  END
>  <name>  (1170) 
P139718

>  <alias>  (1170) 
None

>  <smina_score_min>  (1170) 
-7.949

>  <exports>  (1170) 
['/opt/xchem-fragalysis-2/maxwin/BulkDock/OUTPUTS/openbind_xx01zvns2b_c2_elabs_1LOUTNY.sdf', '/opt/xchem-fragalysis-2/maxwin/BulkDock/OUTPUTS/openbind_xx01zvns2b_c2_elabs_1LSYIIV.sdf']

>  <tags>  (1170) 
syndirella_placed,openbind_xx01zvns2b_c2_elabs,openbind_xx01zvns2b_c2_elabs_scored_6.2plus,syndirella_product,openbind_xx01zvns2b_c2_elabs_scored,openbind_xx01zvns2b_c2_elabs_scored_top80percent,BulkDock Fragalysis export

>  <subsites>  (1170) 
1 - Z4590/B/203/1

>  <smiles>  (1170) 
CC(C)(C)OC(=O)N1[C@@H]2CC[C@H]1c1c(NC(=O)c3cccc4[nH]c(C5CC5)nc34)cccc12

>  <HIPPO Pose ID>  (1170) 
139718

>  <energy_score>  (1170) 
-4.435722

>  <inchikey>  (1170) 
IUTDILQKBFDGCK-UXHICEINSA-N

>  <gnina_score_min>  (1170) 
6.385

>  <gnina_score>  (1170) 
6.505

>  <ref_mols>  (1170) 
Z3094a

>  <HIPPO Compound ID>  (1170) 
198165

>  <distance_score>  (1170) 
1.674789

>  <rmsd(smina/fragmenstein)>  (1170) 
0.659

>  <ref_pdb>  (1170) 
Z3094a

>  <inspiration_score>  (1170) 
None

$$$$
P139719
     RDKit          3D

 33 38  0  0  0  0  0  0  0  0999 V2000
   -9.3828    5.5374  -14.1602 O   0  0  0  0  0  0  0  0  0  0  0  0
   -8.3176    5.6639  -14.6238 C   0  0  0  0  0  0  0  0  0  0  0  0
   -7.1259    6.5338  -14.1699 N   0  0  0  0  0  0  0  0  0  0  0  0
   -7.0242    7.5053  -13.1032 C   0  0  0  0  0  0  0  0  0  0  0  0
   -7.5374    7.0284  -11.7648 C   0  0  0  0  0  0  0  0  0  0  0  0
   -7.9284    7.9241  -10.7690 C   0  0  0  0  0  0  0  0  0  0  0  0
   -8.3657    7.4446   -9.5322 C   0  0  0  0  0  0  0  0  0  0  0  0
   -8.4186    6.0662   -9.2796 C   0  0  0  0  0  0  0  0  0  0  0  0
   -8.0521    5.1461  -10.2625 C   0  0  0  0  0  0  0  0  0  0  0  0
   -7.9892    3.7490  -10.0473 N   0  0  0  0  0  0  0  0  0  0  0  0
   -8.1643    3.0964   -8.8521 C   0  0  0  0  0  0  0  0  0  0  0  0
   -8.7650    3.4560   -7.8510 O   0  0  0  0  0  0  0  0  0  0  0  0
   -7.4145    1.9220   -8.9159 N   0  0  0  0  0  0  0  0  0  0  0  0
   -6.4411    2.0386   -9.9736 C   0  0  0  0  0  0  0  0  0  0  0  0
   -5.2027    2.8873   -9.5679 C   0  0  0  0  0  0  0  0  0  0  0  0
   -3.9813    2.0525   -9.9252 C   0  0  0  0  0  0  0  0  0  0  0  0
   -4.4618    1.1464  -11.0368 C   0  0  0  0  0  0  0  0  0  0  0  0
   -5.8827    0.7829  -10.6216 C   0  0  0  0  0  0  0  0  0  0  0  0
   -7.3088    2.8878  -10.8872 C   0  0  0  0  0  0  0  0  0  0  0  0
   -7.2562    2.8565  -12.1088 O   0  0  0  0  0  0  0  0  0  0  0  0
   -7.5905    5.6641  -11.4747 C   0  0  0  0  0  0  0  0  0  0  0  0
   -8.0486    4.9469  -15.9163 C   0  0  0  0  0  0  0  0  0  0  0  0
   -9.0788    4.1430  -16.4400 C   0  0  0  0  0  0  0  0  0  0  0  0
   -9.0773    3.6791  -17.7518 C   0  0  0  0  0  0  0  0  0  0  0  0
   -8.0132    3.9543  -18.5949 C   0  0  0  0  0  0  0  0  0  0  0  0
   -6.9474    4.6568  -18.0398 C   0  0  0  0  0  0  0  0  0  0  0  0
   -5.7596    5.0446  -18.5882 N   0  0  0  0  0  0  0  0  0  0  0  0
   -5.0400    5.6962  -17.6290 C   0  0  0  0  0  0  0  0  0  0  0  0
   -3.5894    6.2171  -17.8131 C   0  0  0  0  0  0  0  0  0  0  0  0
   -3.0539    6.5157  -19.1891 C   0  0  0  0  0  0  0  0  0  0  0  0
   -2.5590    5.3113  -18.4364 C   0  0  0  0  0  0  0  0  0  0  0  0
   -5.7277    5.8278  -16.5139 N   0  0  0  0  0  0  0  0  0  0  0  0
   -6.9197    5.1493  -16.7345 C   0  0  0  0  0  0  0  0  0  0  0  0
  1  2  2  0
  2  3  1  0
  3  4  1  0
  4  5  1  0
  5  6  2  0
  6  7  1  0
  7  8  2  0
  8  9  1  0
  9 10  1  0
 10 11  1  0
 11 12  2  0
 11 13  1  0
 13 14  1  0
 14 15  1  0
 15 16  1  0
 16 17  1  0
 17 18  1  0
 14 19  1  0
 19 20  2  0
  9 21  2  0
  2 22  1  0
 22 23  2  0
 23 24  1  0
 24 25  2  0
 25 26  1  0
 26 27  1  0
 27 28  1  0
 28 29  1  0
 29 30  1  0
 30 31  1  0
 28 32  2  0
 32 33  1  0
 21  5  1  0
 33 22  1  0
 19 10  1  0
 33 26  2  0
 18 14  1  0
 31 29  1  0
M  END
>  <name>  (1171) 
P139719

>  <alias>  (1171) 
None

>  <smina_score_min>  (1171) 
-8.818

>  <exports>  (1171) 
['/opt/xchem-fragalysis-2/maxwin/BulkDock/OUTPUTS/openbind_xx01zvns2b_c2_elabs_1LOUTNY.sdf', '/opt/xchem-fragalysis-2/maxwin/BulkDock/OUTPUTS/openbind_xx01zvns2b_c2_elabs_1LSYIIV.sdf']

>  <tags>  (1171) 
syndirella_placed,openbind_xx01zvns2b_c2_elabs,openbind_xx01zvns2b_c2_elabs_scored_6.2plus,syndirella_product,openbind_xx01zvns2b_c2_elabs_scored,openbind_xx01zvns2b_c2_elabs_scored_top80percent,BulkDock Fragalysis export

>  <subsites>  (1171) 
1 - Z4590/B/203/1

>  <smiles>  (1171) 
O=C(NCc1cccc(N2C(=O)NC3(CCCC3)C2=O)c1)c1cccc2[nH]c(C3CC3)nc12

>  <HIPPO Pose ID>  (1171) 
139719

>  <energy_score>  (1171) 
-18.533473

>  <inchikey>  (1171) 
ZRVJWBYYWIVUIJ-UHFFFAOYSA-N

>  <gnina_score_min>  (1171) 
6.369

>  <gnina_score>  (1171) 
6.251

>  <ref_mols>  (1171) 
Z3094a

>  <HIPPO Compound ID>  (1171) 
198167

>  <distance_score>  (1171) 
1.431647

>  <rmsd(smina/fragmenstein)>  (1171) 
0.628

>  <ref_pdb>  (1171) 
Z3094a

>  <inspiration_score>  (1171) 
None

$$$$
P139720
     RDKit          3D

 33 38  0  0  0  0  0  0  0  0999 V2000
   -7.6011    6.4739  -14.5160 O   0  0  0  0  0  0  0  0  0  0  0  0
   -7.7471    5.3211  -14.6044 C   0  0  0  0  0  0  0  0  0  0  0  0
   -8.0097    4.2612  -13.5166 N   0  0  0  0  0  0  0  0  0  0  0  0
   -8.0518    4.3793  -12.1359 C   0  0  0  0  0  0  0  0  0  0  0  0
   -8.2612    5.6605  -11.5823 C   0  0  0  0  0  0  0  0  0  0  0  0
   -8.0882    5.9007  -10.2242 C   0  0  0  0  0  0  0  0  0  0  0  0
   -7.5970    4.8518   -9.4767 C   0  0  0  0  0  0  0  0  0  0  0  0
   -7.3962    3.5930  -10.0153 C   0  0  0  0  0  0  0  0  0  0  0  0
   -7.7093    3.2943  -11.3345 C   0  0  0  0  0  0  0  0  0  0  0  0
   -6.2632    3.0031   -9.2940 C   0  0  0  0  0  0  0  0  0  0  0  0
   -5.7063    1.9880   -9.6772 O   0  0  0  0  0  0  0  0  0  0  0  0
   -5.8269    3.9387   -8.3771 N   0  0  0  0  0  0  0  0  0  0  0  0
   -4.4068    4.2387   -8.1454 C   0  0  2  0  0  0  0  0  0  0  0  0
   -3.3722    3.2081   -8.6387 C   0  0  0  0  0  0  0  0  0  0  0  0
   -1.9330    3.4871   -8.1724 C   0  0  0  0  0  0  0  0  0  0  0  0
   -1.7779    4.8577   -7.5291 C   0  0  0  0  0  0  0  0  0  0  0  0
   -2.7692    5.0255   -6.4968 N   0  0  0  0  0  0  0  0  0  0  0  0
   -4.0772    4.6406   -6.6941 C   0  0  0  0  0  0  0  0  0  0  0  0
   -4.8449    4.5884   -5.7355 O   0  0  0  0  0  0  0  0  0  0  0  0
   -6.6499    5.0410   -8.3893 C   0  0  0  0  0  0  0  0  0  0  0  0
   -6.5080    6.1121   -7.8233 O   0  0  0  0  0  0  0  0  0  0  0  0
   -7.7932    4.7355  -15.9542 C   0  0  0  0  0  0  0  0  0  0  0  0
   -8.9678    4.0941  -16.3716 C   0  0  0  0  0  0  0  0  0  0  0  0
   -9.1549    3.7390  -17.7043 C   0  0  0  0  0  0  0  0  0  0  0  0
   -8.1697    3.9877  -18.6556 C   0  0  0  0  0  0  0  0  0  0  0  0
   -7.0024    4.6090  -18.2119 C   0  0  0  0  0  0  0  0  0  0  0  0
   -5.8793    5.0118  -18.8815 N   0  0  0  0  0  0  0  0  0  0  0  0
   -5.0192    5.5624  -17.9732 C   0  0  0  0  0  0  0  0  0  0  0  0
   -3.5986    6.1063  -18.2729 C   0  0  0  0  0  0  0  0  0  0  0  0
   -2.5391    5.1420  -18.7348 C   0  0  0  0  0  0  0  0  0  0  0  0
   -3.0714    6.1846  -19.6792 C   0  0  0  0  0  0  0  0  0  0  0  0
   -5.5445    5.5898  -16.7697 N   0  0  0  0  0  0  0  0  0  0  0  0
   -6.7795    4.9896  -16.8912 C   0  0  0  0  0  0  0  0  0  0  0  0
  1  2  2  0
  2  3  1  0
  3  4  1  0
  4  5  2  0
  5  6  1  0
  6  7  2  0
  7  8  1  0
  8  9  2  0
  8 10  1  0
 10 11  2  0
 10 12  1  0
 13 12  1  1
 13 14  1  0
 14 15  1  0
 15 16  1  0
 16 17  1  0
 17 18  1  0
 18 19  2  0
 12 20  1  0
 20 21  2  0
  2 22  1  0
 22 23  2  0
 23 24  1  0
 24 25  2  0
 25 26  1  0
 26 27  1  0
 27 28  1  0
 28 29  1  0
 29 30  1  0
 30 31  1  0
 28 32  2  0
 32 33  1  0
  9  4  1  0
 18 13  1  0
 33 22  1  0
 20  7  1  0
 33 26  2  0
 31 29  1  0
M  END
>  <name>  (1172) 
P139720

>  <alias>  (1172) 
None

>  <smina_score_min>  (1172) 
-8.37

>  <exports>  (1172) 
['/opt/xchem-fragalysis-2/maxwin/BulkDock/OUTPUTS/openbind_xx01zvns2b_c2_elabs_1LOUTNY.sdf', '/opt/xchem-fragalysis-2/maxwin/BulkDock/OUTPUTS/openbind_xx01zvns2b_c2_elabs_1LSYIIV.sdf']

>  <tags>  (1172) 
syndirella_placed,openbind_xx01zvns2b_c2_elabs,openbind_xx01zvns2b_c2_elabs_scored_6.2plus,syndirella_product,openbind_xx01zvns2b_c2_elabs_scored,openbind_xx01zvns2b_c2_elabs_scored_top80percent,BulkDock Fragalysis export

>  <subsites>  (1172) 
1 - Z4590/B/203/1

>  <smiles>  (1172) 
O=C(Nc1ccc2c(c1)C(=O)N([C@@H]1CCCNC1=O)C2=O)c1cccc2[nH]c(C3CC3)nc12

>  <HIPPO Pose ID>  (1172) 
139720

>  <energy_score>  (1172) 
-6.738398

>  <inchikey>  (1172) 
YNBYROFUWOLOMS-GOSISDBHSA-N

>  <gnina_score_min>  (1172) 
6.388

>  <gnina_score>  (1172) 
6.266

>  <ref_mols>  (1172) 
Z3094a

>  <HIPPO Compound ID>  (1172) 
198168

>  <distance_score>  (1172) 
1.169372

>  <rmsd(smina/fragmenstein)>  (1172) 
1.504

>  <ref_pdb>  (1172) 
Z3094a

>  <inspiration_score>  (1172) 
None

$$$$
P139723
     RDKit          3D

 33 38  0  0  0  0  0  0  0  0999 V2000
   -2.0500    0.7001   -9.5784 O   0  0  0  0  0  0  0  0  0  0  0  0
   -3.1180    1.2423   -9.8533 C   0  0  0  0  0  0  0  0  0  0  0  0
   -3.9635    0.8006  -11.0080 C   0  0  0  0  0  0  0  0  0  0  0  0
   -5.4234    0.8057  -10.6104 C   0  0  0  0  0  0  0  0  0  0  0  0
   -5.8470    2.2151  -10.2096 C   0  0  1  0  0  0  0  0  0  0  0  0
   -7.3132    2.2511  -10.0100 N   0  0  0  0  0  0  0  0  0  0  0  0
   -7.9206    3.0322   -8.9329 C   0  0  0  0  0  0  0  0  0  0  0  0
   -8.1957    4.3262   -9.6133 C   0  0  0  0  0  0  0  0  0  0  0  0
   -8.1838    5.6074   -9.1069 C   0  0  0  0  0  0  0  0  0  0  0  0
   -8.1218    6.6610  -10.0232 C   0  0  0  0  0  0  0  0  0  0  0  0
   -8.0522    6.4208  -11.4125 C   0  0  0  0  0  0  0  0  0  0  0  0
   -8.0973    5.1204  -11.9086 C   0  0  0  0  0  0  0  0  0  0  0  0
   -7.8938    4.8184  -13.2500 N   0  0  0  0  0  0  0  0  0  0  0  0
   -7.4396    5.7125  -14.4196 C   0  0  0  0  0  0  0  0  0  0  0  0
   -7.0904    6.8248  -14.4289 O   0  0  0  0  0  0  0  0  0  0  0  0
   -7.5867    5.0072  -15.7223 C   0  0  0  0  0  0  0  0  0  0  0  0
   -8.7983    4.3663  -16.0407 C   0  0  0  0  0  0  0  0  0  0  0  0
   -9.0747    3.9408  -17.3421 C   0  0  0  0  0  0  0  0  0  0  0  0
   -8.1447    4.1035  -18.3652 C   0  0  0  0  0  0  0  0  0  0  0  0
   -6.9349    4.7037  -18.0192 C   0  0  0  0  0  0  0  0  0  0  0  0
   -5.8389    5.0243  -18.7739 N   0  0  0  0  0  0  0  0  0  0  0  0
   -4.9149    5.6060  -17.9532 C   0  0  0  0  0  0  0  0  0  0  0  0
   -3.5041    6.0983  -18.3634 C   0  0  0  0  0  0  0  0  0  0  0  0
   -3.0614    6.0928  -19.8002 C   0  0  0  0  0  0  0  0  0  0  0  0
   -2.4944    5.0877  -18.8353 C   0  0  0  0  0  0  0  0  0  0  0  0
   -5.3679    5.7226  -16.7270 N   0  0  0  0  0  0  0  0  0  0  0  0
   -6.6250    5.1563  -16.7371 C   0  0  0  0  0  0  0  0  0  0  0  0
   -8.2350    4.1040  -10.9852 C   0  0  0  0  0  0  0  0  0  0  0  0
   -7.9027    2.7023  -11.2070 C   0  0  0  0  0  0  0  0  0  0  0  0
   -7.8700    2.1953  -12.3113 O   0  0  0  0  0  0  0  0  0  0  0  0
   -4.8779    2.8267   -9.1664 C   0  0  0  0  0  0  0  0  0  0  0  0
   -5.1131    3.8174   -8.4748 O   0  0  0  0  0  0  0  0  0  0  0  0
   -3.6092    2.2876   -9.1183 N   0  0  0  0  0  0  0  0  0  0  0  0
  1  2  2  0
  2  3  1  0
  3  4  1  0
  4  5  1  0
  5  6  1  1
  6  7  1  0
  7  8  1  0
  8  9  2  0
  9 10  1  0
 10 11  2  0
 11 12  1  0
 12 13  1  0
 13 14  1  0
 14 15  2  0
 14 16  1  0
 16 17  2  0
 17 18  1  0
 18 19  2  0
 19 20  1  0
 20 21  1  0
 21 22  1  0
 22 23  1  0
 23 24  1  0
 24 25  1  0
 22 26  2  0
 26 27  1  0
 12 28  2  0
 28 29  1  0
 29 30  2  0
  5 31  1  0
 31 32  2  0
 31 33  1  0
 33  2  1  0
 29  6  1  0
 28  8  1  0
 27 16  1  0
 27 20  2  0
 25 23  1  0
M  END
>  <name>  (1173) 
P139723

>  <alias>  (1173) 
None

>  <smina_score_min>  (1173) 
-9.538

>  <exports>  (1173) 
['/opt/xchem-fragalysis-2/maxwin/BulkDock/OUTPUTS/openbind_xx01zvns2b_c2_elabs_1LOUTNY.sdf', '/opt/xchem-fragalysis-2/maxwin/BulkDock/OUTPUTS/openbind_xx01zvns2b_c2_elabs_1LSYIIV.sdf']

>  <tags>  (1173) 
syndirella_placed,openbind_xx01zvns2b_c2_elabs,openbind_xx01zvns2b_c2_elabs_scored_6.2plus,syndirella_product,openbind_xx01zvns2b_c2_elabs_scored,openbind_xx01zvns2b_c2_elabs_scored_top80percent,BulkDock Fragalysis export

>  <subsites>  (1173) 
1 - Z4590/B/203/1

>  <smiles>  (1173) 
O=C1CC[C@@H](N2Cc3cccc(NC(=O)c4cccc5[nH]c(C6CC6)nc45)c3C2=O)C(=O)N1

>  <HIPPO Pose ID>  (1173) 
139723

>  <energy_score>  (1173) 
-37.293116

>  <inchikey>  (1173) 
FNYQXMZCQCCGBO-QGZVFWFLSA-N

>  <gnina_score_min>  (1173) 
6.457

>  <gnina_score>  (1173) 
6.493

>  <ref_mols>  (1173) 
Z3094a

>  <HIPPO Compound ID>  (1173) 
198171

>  <distance_score>  (1173) 
0.930046

>  <rmsd(smina/fragmenstein)>  (1173) 
0.544

>  <ref_pdb>  (1173) 
Z3094a

>  <inspiration_score>  (1173) 
None

$$$$
P139841
     RDKit          3D

 36 39  0  0  0  0  0  0  0  0999 V2000
  -11.2056    2.8772   -5.2707 C   0  0  0  0  0  0  0  0  0  0  0  0
  -10.0678    2.9886   -6.1220 N   0  0  0  0  0  0  0  0  0  0  0  0
   -9.4411    1.8993   -6.6131 C   0  0  0  0  0  0  0  0  0  0  0  0
   -9.8627    0.7596   -6.5991 O   0  0  0  0  0  0  0  0  0  0  0  0
   -8.2686    2.3079   -7.1736 N   0  0  0  0  0  0  0  0  0  0  0  0
   -8.2542    3.7270   -7.4415 C   0  0  1  0  0  0  0  0  0  0  0  0
   -7.0259    4.4016   -6.8180 C   0  0  0  0  0  0  0  0  0  0  0  0
   -8.3718    3.9817   -8.9477 C   0  0  0  0  0  0  0  0  0  0  0  0
   -8.1217    5.2458   -9.5068 C   0  0  0  0  0  0  0  0  0  0  0  0
   -8.0314    5.4220  -10.8979 C   0  0  0  0  0  0  0  0  0  0  0  0
   -8.2162    4.3424  -11.7543 C   0  0  0  0  0  0  0  0  0  0  0  0
   -8.0642    4.4308  -13.1344 N   0  0  0  0  0  0  0  0  0  0  0  0
   -7.4778    5.5610  -14.0090 C   0  0  0  0  0  0  0  0  0  0  0  0
   -7.1012    6.6260  -13.7162 O   0  0  0  0  0  0  0  0  0  0  0  0
   -7.4625    5.1567  -15.4404 C   0  0  0  0  0  0  0  0  0  0  0  0
   -8.6292    4.6645  -16.0289 C   0  0  0  0  0  0  0  0  0  0  0  0
   -8.6524    4.4191  -17.3957 C   0  0  0  0  0  0  0  0  0  0  0  0
  -10.1098    3.9342  -18.1510 Cl  0  0  0  0  0  0  0  0  0  0  0  0
   -7.5211    4.6294  -18.1718 C   0  0  0  0  0  0  0  0  0  0  0  0
   -6.3439    5.0802  -17.5746 C   0  0  0  0  0  0  0  0  0  0  0  0
   -5.2360    5.2240  -18.3978 N   0  0  0  0  0  0  0  0  0  0  0  0
   -3.7649    5.4294  -18.0533 C   0  0  0  0  0  0  0  0  0  0  0  0
   -3.2468    5.5888  -17.0265 O   0  0  0  0  0  0  0  0  0  0  0  0
   -3.1345    5.3593  -19.2483 O   0  0  0  0  0  0  0  0  0  0  0  0
   -1.7090    5.4655  -19.2136 C   0  0  0  0  0  0  0  0  0  0  0  0
   -1.2018    5.7948  -20.5981 C   0  0  0  0  0  0  0  0  0  0  0  0
   -1.9807    5.5870  -21.7473 C   0  0  0  0  0  0  0  0  0  0  0  0
   -1.4810    5.9002  -23.0111 C   0  0  0  0  0  0  0  0  0  0  0  0
   -0.1852    6.3905  -23.1467 C   0  0  0  0  0  0  0  0  0  0  0  0
    0.6080    6.5802  -22.0171 C   0  0  0  0  0  0  0  0  0  0  0  0
    0.1025    6.2868  -20.7499 C   0  0  0  0  0  0  0  0  0  0  0  0
   -6.3117    5.3617  -16.2090 C   0  0  0  0  0  0  0  0  0  0  0  0
   -8.5498    3.1039  -11.2224 C   0  0  0  0  0  0  0  0  0  0  0  0
   -8.6320    2.9254   -9.8426 C   0  0  0  0  0  0  0  0  0  0  0  0
   -9.4860    4.1276   -6.6019 C   0  0  0  0  0  0  0  0  0  0  0  0
   -9.8660    5.2735   -6.3850 O   0  0  0  0  0  0  0  0  0  0  0  0
  1  2  1  0
  2  3  1  0
  3  4  2  0
  3  5  1  0
  5  6  1  0
  6  7  1  1
  6  8  1  0
  8  9  2  0
  9 10  1  0
 10 11  2  0
 11 12  1  0
 12 13  1  0
 13 14  2  0
 13 15  1  0
 15 16  2  0
 16 17  1  0
 17 18  1  0
 17 19  2  0
 19 20  1  0
 20 21  1  0
 21 22  1  0
 22 23  2  0
 22 24  1  0
 24 25  1  0
 25 26  1  0
 26 27  2  0
 27 28  1  0
 28 29  2  0
 29 30  1  0
 30 31  2  0
 20 32  2  0
 11 33  1  0
 33 34  2  0
  6 35  1  0
 35 36  2  0
 35  2  1  0
 34  8  1  0
 32 15  1  0
 31 26  1  0
M  END
>  <name>  (1174) 
P139841

>  <alias>  (1174) 
None

>  <smina_score_min>  (1174) 
-8.691

>  <exports>  (1174) 
['/opt/xchem-fragalysis-2/maxwin/BulkDock/OUTPUTS/openbind_xx01zvns2b_c2_elabs_1LOUTNY.sdf', '/opt/xchem-fragalysis-2/maxwin/BulkDock/OUTPUTS/openbind_xx01zvns2b_c2_elabs_1LSYIIV.sdf']

>  <tags>  (1174) 
syndirella_placed,openbind_xx01zvns2b_c2_elabs,openbind_xx01zvns2b_c2_elabs_scored_6.2plus,syndirella_product,openbind_xx01zvns2b_c2_elabs_scored,openbind_xx01zvns2b_c2_elabs_scored_top80percent,BulkDock Fragalysis export

>  <subsites>  (1174) 
1 - Z4590/B/203/1

>  <smiles>  (1174) 
CN1C(=O)N[C@@](C)(c2ccc(NC(=O)c3cc(Cl)cc(NC(=O)OCc4ccccc4)c3)cc2)C1=O

>  <HIPPO Pose ID>  (1174) 
139841

>  <energy_score>  (1174) 
-19.759974

>  <inchikey>  (1174) 
RZRZTVRUPASIOZ-SANMLTNESA-N

>  <gnina_score_min>  (1174) 
6.286

>  <gnina_score>  (1174) 
6.066

>  <ref_mols>  (1174) 
Z3028a

>  <HIPPO Compound ID>  (1174) 
198429

>  <distance_score>  (1174) 
0.490318

>  <rmsd(smina/fragmenstein)>  (1174) 
1.272

>  <ref_pdb>  (1174) 
Z3028a

>  <inspiration_score>  (1174) 
None

$$$$
P139869
     RDKit          3D

 38 41  0  0  0  0  0  0  0  0999 V2000
   -8.7838    9.1131   -3.4037 C   0  0  0  0  0  0  0  0  0  0  0  0
   -7.9747    7.8157   -3.4159 C   0  0  0  0  0  0  0  0  0  0  0  0
   -6.4715    8.0832   -3.5593 C   0  0  0  0  0  0  0  0  0  0  0  0
   -8.2143    7.0780   -2.0889 C   0  0  0  0  0  0  0  0  0  0  0  0
   -8.4463    6.8964   -4.4346 O   0  0  0  0  0  0  0  0  0  0  0  0
   -8.3052    7.1763   -5.7611 C   0  0  0  0  0  0  0  0  0  0  0  0
   -7.9482    8.1935   -6.1938 O   0  0  0  0  0  0  0  0  0  0  0  0
   -8.6207    5.8566   -6.4632 N   0  0  0  0  0  0  0  0  0  0  0  0
   -8.4793    5.4846   -7.7985 C   0  0  0  0  0  0  0  0  0  0  0  0
   -8.1364    6.3835   -8.8153 C   0  0  0  0  0  0  0  0  0  0  0  0
   -7.8542    5.9416  -10.1296 C   0  0  0  0  0  0  0  0  0  0  0  0
   -7.9279    4.5894  -10.4082 C   0  0  0  0  0  0  0  0  0  0  0  0
   -8.3186    3.7117   -9.3818 C   0  0  0  0  0  0  0  0  0  0  0  0
   -8.6078    4.1333   -8.0956 C   0  0  0  0  0  0  0  0  0  0  0  0
   -8.2025    2.2799   -9.7917 C   0  0  0  0  0  0  0  0  0  0  0  0
   -8.0596    2.4262  -11.2994 C   0  0  0  0  0  0  0  0  0  0  0  0
   -7.3813    3.7804  -11.5529 C   0  0  1  0  0  0  0  0  0  0  0  0
   -7.5516    4.1423  -12.9373 N   0  0  0  0  0  0  0  0  0  0  0  0
   -7.0124    5.3411  -13.7277 C   0  0  0  0  0  0  0  0  0  0  0  0
   -6.4084    6.2699  -13.3714 O   0  0  0  0  0  0  0  0  0  0  0  0
   -7.2625    5.1639  -15.1986 C   0  0  0  0  0  0  0  0  0  0  0  0
   -8.4773    4.7217  -15.7345 C   0  0  0  0  0  0  0  0  0  0  0  0
   -8.5819    4.5235  -17.1152 C   0  0  0  0  0  0  0  0  0  0  0  0
  -10.0611    4.0305  -17.8387 Cl  0  0  0  0  0  0  0  0  0  0  0  0
   -7.4967    4.7498  -17.9560 C   0  0  0  0  0  0  0  0  0  0  0  0
   -6.2785    5.1517  -17.4187 C   0  0  0  0  0  0  0  0  0  0  0  0
   -5.2028    5.2574  -18.2895 N   0  0  0  0  0  0  0  0  0  0  0  0
   -3.7232    5.5063  -18.0125 C   0  0  0  0  0  0  0  0  0  0  0  0
   -3.1718    5.7400  -17.0174 O   0  0  0  0  0  0  0  0  0  0  0  0
   -3.1302    5.3994  -19.2257 O   0  0  0  0  0  0  0  0  0  0  0  0
   -1.7048    5.5202  -19.2258 C   0  0  0  0  0  0  0  0  0  0  0  0
   -1.2192    5.8192  -20.6244 C   0  0  0  0  0  0  0  0  0  0  0  0
   -2.0216    5.6109  -21.7561 C   0  0  0  0  0  0  0  0  0  0  0  0
   -1.5385    5.9016  -23.0318 C   0  0  0  0  0  0  0  0  0  0  0  0
   -0.2370    6.3685  -23.1962 C   0  0  0  0  0  0  0  0  0  0  0  0
    0.5791    6.5579  -22.0833 C   0  0  0  0  0  0  0  0  0  0  0  0
    0.0906    6.2877  -20.8047 C   0  0  0  0  0  0  0  0  0  0  0  0
   -6.1634    5.3753  -16.0479 C   0  0  0  0  0  0  0  0  0  0  0  0
  1  2  1  0
  2  3  1  0
  2  4  1  0
  2  5  1  0
  5  6  1  0
  6  7  2  0
  6  8  1  0
  8  9  1  0
  9 10  2  0
 10 11  1  0
 11 12  2  0
 12 13  1  0
 13 14  2  0
 13 15  1  0
 15 16  1  0
 16 17  1  0
 17 18  1  6
 18 19  1  0
 19 20  2  0
 19 21  1  0
 21 22  2  0
 22 23  1  0
 23 24  1  0
 23 25  2  0
 25 26  1  0
 26 27  1  0
 27 28  1  0
 28 29  2  0
 28 30  1  0
 30 31  1  0
 31 32  1  0
 32 33  2  0
 33 34  1  0
 34 35  2  0
 35 36  1  0
 36 37  2  0
 26 38  2  0
 14  9  1  0
 38 21  1  0
 17 12  1  0
 37 32  1  0
M  END
>  <name>  (1175) 
P139869

>  <alias>  (1175) 
None

>  <smina_score_min>  (1175) 
-8.245

>  <exports>  (1175) 
['/opt/xchem-fragalysis-2/maxwin/BulkDock/OUTPUTS/openbind_xx01zvns2b_c2_elabs_1LOUTNY.sdf', '/opt/xchem-fragalysis-2/maxwin/BulkDock/OUTPUTS/openbind_xx01zvns2b_c2_elabs_1LSYIIV.sdf']

>  <tags>  (1175) 
syndirella_placed,openbind_xx01zvns2b_c2_elabs,openbind_xx01zvns2b_c2_elabs_scored_6.2plus,syndirella_product,openbind_xx01zvns2b_c2_elabs_scored,openbind_xx01zvns2b_c2_elabs_scored_top80percent,BulkDock Fragalysis export

>  <subsites>  (1175) 
1 - Z4590/B/203/1

>  <smiles>  (1175) 
CC(C)(C)OC(=O)Nc1ccc2c(c1)CC[C@H]2NC(=O)c1cc(Cl)cc(NC(=O)OCc2ccccc2)c1

>  <HIPPO Pose ID>  (1175) 
139869

>  <energy_score>  (1175) 
-26.686837

>  <inchikey>  (1175) 
XXXWEBQXXSWSRP-RUZDIDTESA-N

>  <gnina_score_min>  (1175) 
6.357

>  <gnina_score>  (1175) 
6.004

>  <ref_mols>  (1175) 
Z3028a

>  <HIPPO Compound ID>  (1175) 
198454

>  <distance_score>  (1175) 
1.135091

>  <rmsd(smina/fragmenstein)>  (1175) 
2.173

>  <ref_pdb>  (1175) 
Z3028a

>  <inspiration_score>  (1175) 
None

$$$$
P139871
     RDKit          3D

 39 43  0  0  0  0  0  0  0  0999 V2000
   -7.7520    2.3384  -11.6270 C   0  0  0  0  0  0  0  0  0  0  0  0
   -6.9236    3.6010  -11.9041 C   0  0  1  0  0  0  0  0  0  0  0  0
   -7.1991    4.0338  -13.2477 N   0  0  0  0  0  0  0  0  0  0  0  0
   -6.9422    5.3771  -13.9318 C   0  0  0  0  0  0  0  0  0  0  0  0
   -6.5371    6.3770  -13.5006 O   0  0  0  0  0  0  0  0  0  0  0  0
   -7.2012    5.2245  -15.3914 C   0  0  0  0  0  0  0  0  0  0  0  0
   -8.4169    4.7478  -15.8929 C   0  0  0  0  0  0  0  0  0  0  0  0
   -8.5403    4.5300  -17.2656 C   0  0  0  0  0  0  0  0  0  0  0  0
  -10.0264    3.9979  -17.9419 Cl  0  0  0  0  0  0  0  0  0  0  0  0
   -7.4691    4.7626  -18.1240 C   0  0  0  0  0  0  0  0  0  0  0  0
   -6.2503    5.1940  -17.6080 C   0  0  0  0  0  0  0  0  0  0  0  0
   -5.1754    5.3078  -18.4767 N   0  0  0  0  0  0  0  0  0  0  0  0
   -3.6825    5.4497  -18.1944 C   0  0  0  0  0  0  0  0  0  0  0  0
   -3.1141    5.5716  -17.1889 O   0  0  0  0  0  0  0  0  0  0  0  0
   -3.0973    5.3687  -19.4115 O   0  0  0  0  0  0  0  0  0  0  0  0
   -1.6670    5.3881  -19.4026 C   0  0  0  0  0  0  0  0  0  0  0  0
   -1.1688    5.7678  -20.7744 C   0  0  0  0  0  0  0  0  0  0  0  0
    0.1341    6.2661  -20.9156 C   0  0  0  0  0  0  0  0  0  0  0  0
    0.6334    6.5959  -22.1750 C   0  0  0  0  0  0  0  0  0  0  0  0
   -0.1651    6.4363  -23.3053 C   0  0  0  0  0  0  0  0  0  0  0  0
   -1.4602    5.9408  -23.1789 C   0  0  0  0  0  0  0  0  0  0  0  0
   -1.9539    5.5909  -21.9234 C   0  0  0  0  0  0  0  0  0  0  0  0
   -6.1180    5.4459  -16.2458 C   0  0  0  0  0  0  0  0  0  0  0  0
   -7.1312    4.5002  -10.7142 C   0  0  0  0  0  0  0  0  0  0  0  0
   -6.5082    4.0279   -9.5426 C   0  0  0  0  0  0  0  0  0  0  0  0
   -6.9820    4.3780   -8.3011 C   0  0  0  0  0  0  0  0  0  0  0  0
   -8.0228    5.2820   -8.2175 C   0  0  0  0  0  0  0  0  0  0  0  0
   -8.7893    5.2546   -7.0526 N   0  0  0  0  0  0  0  0  0  0  0  0
   -9.2020    6.3068   -6.2793 C   0  0  0  0  0  0  0  0  0  0  0  0
   -9.8206    5.8957   -5.1914 N   0  0  0  0  0  0  0  0  0  0  0  0
   -9.9307    4.5320   -5.3454 C   0  0  0  0  0  0  0  0  0  0  0  0
  -10.5656    3.5810   -4.5449 C   0  0  0  0  0  0  0  0  0  0  0  0
  -10.6875    2.2704   -5.0205 C   0  0  0  0  0  0  0  0  0  0  0  0
  -10.1068    1.8745   -6.2179 C   0  0  0  0  0  0  0  0  0  0  0  0
   -9.3922    2.7821   -6.9850 C   0  0  0  0  0  0  0  0  0  0  0  0
   -9.3304    4.1057   -6.5189 C   0  0  0  0  0  0  0  0  0  0  0  0
   -8.4516    5.9708   -9.3428 C   0  0  0  0  0  0  0  0  0  0  0  0
   -9.3463    6.9619   -9.2513 F   0  0  0  0  0  0  0  0  0  0  0  0
   -8.0399    5.5517  -10.6117 C   0  0  0  0  0  0  0  0  0  0  0  0
  2  1  1  1
  2  3  1  0
  3  4  1  0
  4  5  2  0
  4  6  1  0
  6  7  2  0
  7  8  1  0
  8  9  1  0
  8 10  2  0
 10 11  1  0
 11 12  1  0
 12 13  1  0
 13 14  2  0
 13 15  1  0
 15 16  1  0
 16 17  1  0
 17 18  2  0
 18 19  1  0
 19 20  2  0
 20 21  1  0
 21 22  2  0
 11 23  2  0
  2 24  1  0
 24 25  2  0
 25 26  1  0
 26 27  2  0
 27 28  1  0
 28 29  1  0
 29 30  2  0
 30 31  1  0
 31 32  2  0
 32 33  1  0
 33 34  2  0
 34 35  1  0
 35 36  2  0
 27 37  1  0
 37 38  1  0
 37 39  2  0
 23  6  1  0
 39 24  1  0
 22 17  1  0
 36 28  1  0
 36 31  1  0
M  END
>  <name>  (1176) 
P139871

>  <alias>  (1176) 
None

>  <smina_score_min>  (1176) 
-8.783

>  <exports>  (1176) 
['/opt/xchem-fragalysis-2/maxwin/BulkDock/OUTPUTS/openbind_xx01zvns2b_c2_elabs_1LOUTNY.sdf', '/opt/xchem-fragalysis-2/maxwin/BulkDock/OUTPUTS/openbind_xx01zvns2b_c2_elabs_1LSYIIV.sdf']

>  <tags>  (1176) 
syndirella_placed,openbind_xx01zvns2b_c2_elabs,openbind_xx01zvns2b_c2_elabs_scored_6.2plus,syndirella_product,openbind_xx01zvns2b_c2_elabs_scored,openbind_xx01zvns2b_c2_elabs_scored_top80percent,BulkDock Fragalysis export

>  <subsites>  (1176) 
1 - Z4590/B/203/1

>  <smiles>  (1176) 
C[C@@H](NC(=O)c1cc(Cl)cc(NC(=O)OCc2ccccc2)c1)c1ccc(-n2cnc3ccccc32)c(F)c1

>  <HIPPO Pose ID>  (1176) 
139871

>  <energy_score>  (1176) 
-1.52949

>  <inchikey>  (1176) 
CGBBFIZMSSYWTJ-LJQANCHMSA-N

>  <gnina_score_min>  (1176) 
6.336

>  <gnina_score>  (1176) 
6.355

>  <ref_mols>  (1176) 
Z3028a

>  <HIPPO Compound ID>  (1176) 
198456

>  <distance_score>  (1176) 
1.364851

>  <rmsd(smina/fragmenstein)>  (1176) 
1.153

>  <ref_pdb>  (1176) 
Z3028a

>  <inspiration_score>  (1176) 
None

$$$$
P139874
     RDKit          3D

 40 42  0  0  0  0  0  0  0  0999 V2000
   -6.0157    1.8302  -11.3768 C   0  0  0  0  0  0  0  0  0  0  0  0
   -7.2868    2.3492  -11.7767 O   0  0  0  0  0  0  0  0  0  0  0  0
   -7.6881    3.3773  -10.9610 C   0  0  0  0  0  0  0  0  0  0  0  0
   -7.8815    3.1561   -9.5911 C   0  0  0  0  0  0  0  0  0  0  0  0
   -8.3435    4.1777   -8.7340 C   0  0  0  0  0  0  0  0  0  0  0  0
   -8.4069    3.9483   -7.2144 C   0  0  0  0  0  0  0  0  0  0  0  0
   -8.9969    2.5495   -6.8936 C   0  0  0  0  0  0  0  0  0  0  0  0
   -9.2581    4.9472   -6.4066 C   0  0  0  0  0  0  0  0  0  0  0  0
   -7.0384    4.0313   -6.7376 N   0  0  0  0  0  0  0  0  0  0  0  0
   -6.2304    5.2250   -6.2554 C   0  0  0  0  0  0  0  0  0  0  0  0
   -6.4971    6.3528   -6.2300 O   0  0  0  0  0  0  0  0  0  0  0  0
   -5.0346    4.7108   -5.8317 O   0  0  0  0  0  0  0  0  0  0  0  0
   -3.9614    5.6164   -5.4442 C   0  0  0  0  0  0  0  0  0  0  0  0
   -3.5434    6.5200   -6.6119 C   0  0  0  0  0  0  0  0  0  0  0  0
   -2.7712    4.7080   -5.0946 C   0  0  0  0  0  0  0  0  0  0  0  0
   -4.3337    6.4236   -4.1948 C   0  0  0  0  0  0  0  0  0  0  0  0
   -8.6189    5.4215   -9.3218 C   0  0  0  0  0  0  0  0  0  0  0  0
   -8.5088    5.6242  -10.7052 C   0  0  0  0  0  0  0  0  0  0  0  0
   -8.0210    4.6132  -11.5236 C   0  0  0  0  0  0  0  0  0  0  0  0
   -7.8537    4.8708  -12.8810 N   0  0  0  0  0  0  0  0  0  0  0  0
   -6.6959    4.5084  -13.8346 C   0  0  0  0  0  0  0  0  0  0  0  0
   -5.6660    4.0050  -13.6168 O   0  0  0  0  0  0  0  0  0  0  0  0
   -7.0403    4.7786  -15.2666 C   0  0  0  0  0  0  0  0  0  0  0  0
   -8.2948    4.4540  -15.8034 C   0  0  0  0  0  0  0  0  0  0  0  0
   -8.4785    4.4993  -17.1867 C   0  0  0  0  0  0  0  0  0  0  0  0
   -9.9837    4.0582  -17.8926 Cl  0  0  0  0  0  0  0  0  0  0  0  0
   -7.4381    4.8731  -18.0321 C   0  0  0  0  0  0  0  0  0  0  0  0
   -6.1892    5.1764  -17.4985 C   0  0  0  0  0  0  0  0  0  0  0  0
   -5.1413    5.4085  -18.3785 N   0  0  0  0  0  0  0  0  0  0  0  0
   -3.6378    5.4996  -18.1293 C   0  0  0  0  0  0  0  0  0  0  0  0
   -3.0354    5.4716  -17.1364 O   0  0  0  0  0  0  0  0  0  0  0  0
   -3.0884    5.5768  -19.3642 O   0  0  0  0  0  0  0  0  0  0  0  0
   -1.6611    5.4865  -19.3819 C   0  0  0  0  0  0  0  0  0  0  0  0
   -1.1649    5.8193  -20.7656 C   0  0  0  0  0  0  0  0  0  0  0  0
    0.1444    6.2919  -20.9306 C   0  0  0  0  0  0  0  0  0  0  0  0
    0.6376    6.5799  -22.2026 C   0  0  0  0  0  0  0  0  0  0  0  0
   -0.1733    6.4029  -23.3215 C   0  0  0  0  0  0  0  0  0  0  0  0
   -1.4742    5.9297  -23.1711 C   0  0  0  0  0  0  0  0  0  0  0  0
   -1.9617    5.6198  -21.9028 C   0  0  0  0  0  0  0  0  0  0  0  0
   -5.9941    5.1497  -16.1200 C   0  0  0  0  0  0  0  0  0  0  0  0
  1  2  1  0
  2  3  1  0
  3  4  2  0
  4  5  1  0
  5  6  1  0
  6  7  1  0
  6  8  1  0
  6  9  1  0
  9 10  1  0
 10 11  2  0
 10 12  1  0
 12 13  1  0
 13 14  1  0
 13 15  1  0
 13 16  1  0
  5 17  2  0
 17 18  1  0
 18 19  2  0
 19 20  1  0
 20 21  1  0
 21 22  2  0
 21 23  1  0
 23 24  2  0
 24 25  1  0
 25 26  1  0
 25 27  2  0
 27 28  1  0
 28 29  1  0
 29 30  1  0
 30 31  2  0
 30 32  1  0
 32 33  1  0
 33 34  1  0
 34 35  2  0
 35 36  1  0
 36 37  2  0
 37 38  1  0
 38 39  2  0
 28 40  2  0
 19  3  1  0
 40 23  1  0
 39 34  1  0
M  END
>  <name>  (1177) 
P139874

>  <alias>  (1177) 
None

>  <smina_score_min>  (1177) 
-7.617

>  <exports>  (1177) 
['/opt/xchem-fragalysis-2/maxwin/BulkDock/OUTPUTS/openbind_xx01zvns2b_c2_elabs_1LOUTNY.sdf', '/opt/xchem-fragalysis-2/maxwin/BulkDock/OUTPUTS/openbind_xx01zvns2b_c2_elabs_1LSYIIV.sdf']

>  <tags>  (1177) 
syndirella_placed,openbind_xx01zvns2b_c2_elabs,openbind_xx01zvns2b_c2_elabs_scored_6.2plus,syndirella_product,openbind_xx01zvns2b_c2_elabs_scored,openbind_xx01zvns2b_c2_elabs_scored_top80percent,BulkDock Fragalysis export

>  <subsites>  (1177) 
1 - Z4590/B/203/1

>  <smiles>  (1177) 
COc1cc(C(C)(C)NC(=O)OC(C)(C)C)ccc1NC(=O)c1cc(Cl)cc(NC(=O)OCc2ccccc2)c1

>  <HIPPO Pose ID>  (1177) 
139874

>  <energy_score>  (1177) 
-46.621109

>  <inchikey>  (1177) 
SQKMBOGLWQNCOP-UHFFFAOYSA-N

>  <gnina_score_min>  (1177) 
6.302

>  <gnina_score>  (1177) 
6.156

>  <ref_mols>  (1177) 
Z3028a

>  <HIPPO Compound ID>  (1177) 
198463

>  <distance_score>  (1177) 
0.75638

>  <rmsd(smina/fragmenstein)>  (1177) 
2.083

>  <ref_pdb>  (1177) 
Z3028a

>  <inspiration_score>  (1177) 
None

$$$$
P139936
     RDKit          3D

 26 30  0  0  0  0  0  0  0  0999 V2000
   -8.5695    2.1927   -8.8084 C   0  0  0  0  0  0  0  0  0  0  0  0
   -8.3400    3.4761   -9.5427 C   0  0  0  0  0  0  0  0  0  0  0  0
   -8.1714    3.5039  -10.9236 C   0  0  0  0  0  0  0  0  0  0  0  0
   -7.9715    4.7330  -11.5630 C   0  0  0  0  0  0  0  0  0  0  0  0
   -7.7160    4.7014  -12.9449 N   0  0  0  0  0  0  0  0  0  0  0  0
   -6.7974    5.5938  -13.8201 C   0  0  0  0  0  0  0  0  0  0  0  0
   -6.1715    6.5406  -13.5401 O   0  0  0  0  0  0  0  0  0  0  0  0
   -6.8487    5.1722  -15.2359 C   0  0  0  0  0  0  0  0  0  0  0  0
   -7.9743    4.6453  -15.9381 C   0  0  0  0  0  0  0  0  0  0  0  0
   -7.6471    4.5894  -17.2713 C   0  0  0  0  0  0  0  0  0  0  0  0
   -8.5837    4.1911  -18.4498 C   0  0  0  0  0  0  0  0  0  0  0  0
  -10.0720    4.0901  -18.3070 C   0  0  0  0  0  0  0  0  0  0  0  0
   -9.2452    2.8505  -18.4339 C   0  0  0  0  0  0  0  0  0  0  0  0
   -6.3443    5.0050  -17.4177 N   0  0  0  0  0  0  0  0  0  0  0  0
   -5.7254    5.1422  -18.7152 C   0  0  0  0  0  0  0  0  0  0  0  0
   -5.8299    5.3348  -16.1827 C   0  0  0  0  0  0  0  0  0  0  0  0
   -4.3908    5.8459  -15.7956 C   0  0  0  0  0  0  0  0  0  0  0  0
   -3.6219    6.7690  -16.6969 C   0  0  0  0  0  0  0  0  0  0  0  0
   -3.1427    5.3598  -16.4716 C   0  0  0  0  0  0  0  0  0  0  0  0
   -8.0477    5.9169  -10.8072 C   0  0  0  0  0  0  0  0  0  0  0  0
   -8.1925    5.7830   -9.4163 C   0  0  0  0  0  0  0  0  0  0  0  0
   -8.3138    4.5934   -8.7900 N   0  0  0  0  0  0  0  0  0  0  0  0
   -8.1943    6.9759   -8.4938 C   0  0  0  0  0  0  0  0  0  0  0  0
   -8.6804    8.2532   -9.1597 C   0  0  0  0  0  0  0  0  0  0  0  0
   -7.9476    8.4504  -10.4731 C   0  0  0  0  0  0  0  0  0  0  0  0
   -8.2468    7.2867  -11.4159 C   0  0  0  0  0  0  0  0  0  0  0  0
  1  2  1  0
  2  3  2  0
  3  4  1  0
  4  5  1  0
  5  6  1  0
  6  7  2  0
  6  8  1  0
  8  9  1  0
  9 10  2  0
 10 11  1  0
 11 12  1  0
 12 13  1  0
 10 14  1  0
 14 15  1  0
 14 16  1  0
 16 17  1  0
 17 18  1  0
 18 19  1  0
  4 20  2  0
 20 21  1  0
 21 22  2  0
 21 23  1  0
 23 24  1  0
 24 25  1  0
 25 26  1  0
 22  2  1  0
 16  8  2  0
 19 17  1  0
 26 20  1  0
 13 11  1  0
M  END
>  <name>  (1178) 
P139936

>  <alias>  (1178) 
None

>  <smina_score_min>  (1178) 
-7.114

>  <exports>  (1178) 
['/opt/xchem-fragalysis-2/maxwin/BulkDock/OUTPUTS/openbind_xx01zvns2b_c2_elabs_1LOUTNY.sdf', '/opt/xchem-fragalysis-2/maxwin/BulkDock/OUTPUTS/openbind_xx01zvns2b_c2_elabs_1LSYIIV.sdf']

>  <tags>  (1178) 
syndirella_placed,openbind_xx01zvns2b_c2_elabs,openbind_xx01zvns2b_c2_elabs_scored_6.2plus,syndirella_product,openbind_xx01zvns2b_c2_elabs_scored,openbind_xx01zvns2b_c2_elabs_scored_top80percent,BulkDock Fragalysis export

>  <subsites>  (1178) 
1 - Z4590/B/203/1

>  <smiles>  (1178) 
Cc1cc(NC(=O)c2cc(C3CC3)n(C)c2C2CC2)c2c(n1)CCCC2

>  <HIPPO Pose ID>  (1178) 
139936

>  <energy_score>  (1178) 
-26.690208

>  <inchikey>  (1178) 
KYYDGDSHFNCREZ-UHFFFAOYSA-N

>  <gnina_score_min>  (1178) 
6.259

>  <gnina_score>  (1178) 
6.207

>  <ref_mols>  (1178) 
Z1237a

>  <HIPPO Compound ID>  (1178) 
198547

>  <distance_score>  (1178) 
0.560451

>  <rmsd(smina/fragmenstein)>  (1178) 
0.323

>  <ref_pdb>  (1178) 
Z1237a

>  <inspiration_score>  (1178) 
None

$$$$
P139954
     RDKit          3D

 27 30  0  0  0  0  0  0  0  0999 V2000
   -6.7981    9.1792  -11.4107 C   0  0  0  0  0  0  0  0  0  0  0  0
   -6.8752    7.8506  -10.8964 O   0  0  0  0  0  0  0  0  0  0  0  0
   -7.9746    7.1747  -11.3073 C   0  0  0  0  0  0  0  0  0  0  0  0
   -8.8684    7.5719  -12.0385 O   0  0  0  0  0  0  0  0  0  0  0  0
   -7.9648    5.8333  -10.7220 C   0  0  0  0  0  0  0  0  0  0  0  0
   -7.9992    4.6637  -11.5021 C   0  0  0  0  0  0  0  0  0  0  0  0
   -7.7425    4.6459  -12.8885 N   0  0  0  0  0  0  0  0  0  0  0  0
   -6.9300    5.6247  -13.7743 C   0  0  0  0  0  0  0  0  0  0  0  0
   -6.4132    6.6371  -13.5057 O   0  0  0  0  0  0  0  0  0  0  0  0
   -6.9340    5.1868  -15.1827 C   0  0  0  0  0  0  0  0  0  0  0  0
   -8.0290    4.6314  -15.9071 C   0  0  0  0  0  0  0  0  0  0  0  0
   -7.6690    4.5815  -17.2328 C   0  0  0  0  0  0  0  0  0  0  0  0
   -8.5780    4.1876  -18.4346 C   0  0  0  0  0  0  0  0  0  0  0  0
   -9.2385    2.8467  -18.4448 C   0  0  0  0  0  0  0  0  0  0  0  0
  -10.0692    4.0844  -18.3214 C   0  0  0  0  0  0  0  0  0  0  0  0
   -6.3676    5.0111  -17.3472 N   0  0  0  0  0  0  0  0  0  0  0  0
   -5.7083    5.1466  -18.6250 C   0  0  0  0  0  0  0  0  0  0  0  0
   -5.8944    5.3645  -16.1022 C   0  0  0  0  0  0  0  0  0  0  0  0
   -4.4824    5.9204  -15.6820 C   0  0  0  0  0  0  0  0  0  0  0  0
   -3.2058    5.4056  -16.2800 C   0  0  0  0  0  0  0  0  0  0  0  0
   -3.6758    6.8013  -16.5920 C   0  0  0  0  0  0  0  0  0  0  0  0
   -8.3105    3.4534  -10.8700 C   0  0  0  0  0  0  0  0  0  0  0  0
   -8.5224    3.4649   -9.4968 C   0  0  0  0  0  0  0  0  0  0  0  0
   -9.0167    2.0776   -8.6309 Cl  0  0  0  0  0  0  0  0  0  0  0  0
   -8.4332    4.5587   -8.7226 N   0  0  0  0  0  0  0  0  0  0  0  0
   -8.1740    5.7175   -9.3539 C   0  0  0  0  0  0  0  0  0  0  0  0
   -8.2155    7.0506   -8.2586 Cl  0  0  0  0  0  0  0  0  0  0  0  0
  1  2  1  0
  2  3  1  0
  3  4  2  0
  3  5  1  0
  5  6  2  0
  6  7  1  0
  7  8  1  0
  8  9  2  0
  8 10  1  0
 10 11  1  0
 11 12  2  0
 12 13  1  0
 13 14  1  0
 14 15  1  0
 12 16  1  0
 16 17  1  0
 16 18  1  0
 18 19  1  0
 19 20  1  0
 20 21  1  0
  6 22  1  0
 22 23  2  0
 23 24  1  0
 23 25  1  0
 25 26  2  0
 26 27  1  0
 26  5  1  0
 18 10  2  0
 21 19  1  0
 15 13  1  0
M  END
>  <name>  (1179) 
P139954

>  <alias>  (1179) 
None

>  <smina_score_min>  (1179) 
-6.71

>  <exports>  (1179) 
['/opt/xchem-fragalysis-2/maxwin/BulkDock/OUTPUTS/openbind_xx01zvns2b_c2_elabs_1LOUTNY.sdf', '/opt/xchem-fragalysis-2/maxwin/BulkDock/OUTPUTS/openbind_xx01zvns2b_c2_elabs_1LSYIIV.sdf']

>  <tags>  (1179) 
syndirella_placed,openbind_xx01zvns2b_c2_elabs,openbind_xx01zvns2b_c2_elabs_scored_6.2plus,syndirella_product,openbind_xx01zvns2b_c2_elabs_scored,openbind_xx01zvns2b_c2_elabs_scored_top80percent,BulkDock Fragalysis export

>  <subsites>  (1179) 
1 - Z4590/B/203/1

>  <smiles>  (1179) 
COC(=O)c1c(NC(=O)c2cc(C3CC3)n(C)c2C2CC2)cc(Cl)nc1Cl

>  <HIPPO Pose ID>  (1179) 
139954

>  <energy_score>  (1179) 
-37.667874

>  <inchikey>  (1179) 
XHIUJEOKAATZBS-UHFFFAOYSA-N

>  <gnina_score_min>  (1179) 
6.208

>  <gnina_score>  (1179) 
6.125

>  <ref_mols>  (1179) 
Z1237a

>  <HIPPO Compound ID>  (1179) 
198572

>  <distance_score>  (1179) 
0.557198

>  <rmsd(smina/fragmenstein)>  (1179) 
0.583

>  <ref_pdb>  (1179) 
Z1237a

>  <inspiration_score>  (1179) 
None

$$$$
P139963
     RDKit          3D

 28 31  0  0  0  0  0  0  0  0999 V2000
   -8.4834   11.4870  -11.5257 C   0  0  0  0  0  0  0  0  0  0  0  0
   -8.3051   10.2851  -10.7785 O   0  0  0  0  0  0  0  0  0  0  0  0
   -9.1772    9.2937  -11.1122 C   0  0  0  0  0  0  0  0  0  0  0  0
  -10.0356    9.3737  -11.9820 O   0  0  0  0  0  0  0  0  0  0  0  0
   -8.9136    8.0574  -10.2935 C   0  0  0  0  0  0  0  0  0  0  0  0
   -8.1527    7.0338  -11.1401 C   0  0  0  0  0  0  0  0  0  0  0  0
   -8.1028    5.6062  -10.6508 C   0  0  0  0  0  0  0  0  0  0  0  0
   -8.0052    4.4978  -11.5110 C   0  0  0  0  0  0  0  0  0  0  0  0
   -7.7698    4.5607  -12.8983 N   0  0  0  0  0  0  0  0  0  0  0  0
   -7.0320    5.6279  -13.7471 C   0  0  0  0  0  0  0  0  0  0  0  0
   -6.5728    6.6575  -13.4373 O   0  0  0  0  0  0  0  0  0  0  0  0
   -7.0113    5.2215  -15.1609 C   0  0  0  0  0  0  0  0  0  0  0  0
   -8.0573    4.6109  -15.9158 C   0  0  0  0  0  0  0  0  0  0  0  0
   -7.6655    4.5863  -17.2362 C   0  0  0  0  0  0  0  0  0  0  0  0
   -8.5161    4.1391  -18.4596 C   0  0  0  0  0  0  0  0  0  0  0  0
   -9.2308    2.8266  -18.4258 C   0  0  0  0  0  0  0  0  0  0  0  0
  -10.0160    4.0994  -18.4054 C   0  0  0  0  0  0  0  0  0  0  0  0
   -6.3935    5.0925  -17.3143 N   0  0  0  0  0  0  0  0  0  0  0  0
   -5.6824    5.2944  -18.5546 C   0  0  0  0  0  0  0  0  0  0  0  0
   -5.9795    5.4630  -16.0608 C   0  0  0  0  0  0  0  0  0  0  0  0
   -4.6264    6.1432  -15.6926 C   0  0  0  0  0  0  0  0  0  0  0  0
   -3.3134    5.4953  -16.0402 C   0  0  0  0  0  0  0  0  0  0  0  0
   -3.7757    5.5136  -14.6169 C   0  0  0  0  0  0  0  0  0  0  0  0
   -8.1443    3.2117  -10.9764 C   0  0  0  0  0  0  0  0  0  0  0  0
   -8.2735    3.0562   -9.6066 C   0  0  0  0  0  0  0  0  0  0  0  0
   -8.2827    4.0871   -8.7468 N   0  0  0  0  0  0  0  0  0  0  0  0
   -8.1964    5.3181   -9.2857 C   0  0  0  0  0  0  0  0  0  0  0  0
   -8.2155    6.3243   -8.3974 F   0  0  0  0  0  0  0  0  0  0  0  0
  1  2  1  0
  2  3  1  0
  3  4  2  0
  3  5  1  0
  5  6  1  0
  6  7  1  0
  7  8  2  0
  8  9  1  0
  9 10  1  0
 10 11  2  0
 10 12  1  0
 12 13  1  0
 13 14  2  0
 14 15  1  0
 15 16  1  0
 16 17  1  0
 14 18  1  0
 18 19  1  0
 18 20  1  0
 20 21  1  0
 21 22  1  0
 22 23  1  0
  8 24  1  0
 24 25  2  0
 25 26  1  0
 26 27  2  0
 27 28  1  0
 27  7  1  0
 20 12  2  0
 23 21  1  0
 17 15  1  0
M  END
>  <name>  (1180) 
P139963

>  <alias>  (1180) 
None

>  <smina_score_min>  (1180) 
-6.635

>  <exports>  (1180) 
['/opt/xchem-fragalysis-2/maxwin/BulkDock/OUTPUTS/openbind_xx01zvns2b_c2_elabs_1LOUTNY.sdf', '/opt/xchem-fragalysis-2/maxwin/BulkDock/OUTPUTS/openbind_xx01zvns2b_c2_elabs_1LSYIIV.sdf']

>  <tags>  (1180) 
syndirella_placed,openbind_xx01zvns2b_c2_elabs,openbind_xx01zvns2b_c2_elabs_scored_6.2plus,syndirella_product,openbind_xx01zvns2b_c2_elabs_scored,openbind_xx01zvns2b_c2_elabs_scored_top80percent,BulkDock Fragalysis export

>  <subsites>  (1180) 
1 - Z4590/B/203/1

>  <smiles>  (1180) 
COC(=O)CCc1c(NC(=O)c2cc(C3CC3)n(C)c2C2CC2)ccnc1F

>  <HIPPO Pose ID>  (1180) 
139963

>  <energy_score>  (1180) 
-63.552323

>  <inchikey>  (1180) 
WOMJJVJUWSUWPX-UHFFFAOYSA-N

>  <gnina_score_min>  (1180) 
6.306

>  <gnina_score>  (1180) 
6.221

>  <ref_mols>  (1180) 
Z1237a

>  <HIPPO Compound ID>  (1180) 
198585

>  <distance_score>  (1180) 
0.489567

>  <rmsd(smina/fragmenstein)>  (1180) 
1.277

>  <ref_pdb>  (1180) 
Z1237a

>  <inspiration_score>  (1180) 
None

$$$$
P139965
     RDKit          3D

 28 32  0  0  0  0  0  0  0  0999 V2000
   -5.6542    5.1207  -18.7849 C   0  0  0  0  0  0  0  0  0  0  0  0
   -6.2791    5.0681  -17.4845 N   0  0  0  0  0  0  0  0  0  0  0  0
   -7.5696    4.6259  -17.2953 C   0  0  0  0  0  0  0  0  0  0  0  0
   -8.5239    4.1636  -18.4440 C   0  0  0  0  0  0  0  0  0  0  0  0
   -9.2240    2.8458  -18.3553 C   0  0  0  0  0  0  0  0  0  0  0  0
  -10.0149    4.1107  -18.2797 C   0  0  0  0  0  0  0  0  0  0  0  0
   -7.8750    4.7512  -15.9589 C   0  0  0  0  0  0  0  0  0  0  0  0
   -6.7814    5.4265  -15.3340 C   0  0  0  0  0  0  0  0  0  0  0  0
   -6.7706    6.0298  -13.9925 C   0  0  0  0  0  0  0  0  0  0  0  0
   -6.4801    7.1512  -13.8643 O   0  0  0  0  0  0  0  0  0  0  0  0
   -7.2742    5.0051  -12.9598 N   0  0  0  0  0  0  0  0  0  0  0  0
   -7.6102    5.1645  -11.5993 C   0  0  0  0  0  0  0  0  0  0  0  0
   -8.1651    6.3388  -11.0905 C   0  0  0  0  0  0  0  0  0  0  0  0
   -8.4997    7.4943  -11.8548 C   0  0  0  0  0  0  0  0  0  0  0  0
   -8.8738    8.4345  -12.4250 N   0  0  0  0  0  0  0  0  0  0  0  0
   -8.5867    6.3357   -9.7732 C   0  0  0  0  0  0  0  0  0  0  0  0
   -8.5874    5.2499   -8.9795 N   0  0  0  0  0  0  0  0  0  0  0  0
   -8.0909    4.1000   -9.4644 C   0  0  0  0  0  0  0  0  0  0  0  0
   -8.1468    2.9358   -8.7111 C   0  0  0  0  0  0  0  0  0  0  0  0
   -9.1407    2.8583   -7.0864 Br  0  0  0  0  0  0  0  0  0  0  0  0
   -7.4843    1.7887   -9.1304 C   0  0  0  0  0  0  0  0  0  0  0  0
   -6.7101    1.7949  -10.2810 C   0  0  0  0  0  0  0  0  0  0  0  0
   -6.7324    2.9134  -11.0918 C   0  0  0  0  0  0  0  0  0  0  0  0
   -7.4873    4.0460  -10.7420 C   0  0  0  0  0  0  0  0  0  0  0  0
   -5.7770    5.5413  -16.2918 C   0  0  0  0  0  0  0  0  0  0  0  0
   -4.3780    6.1712  -15.9570 C   0  0  0  0  0  0  0  0  0  0  0  0
   -3.5403    6.8872  -16.9752 C   0  0  0  0  0  0  0  0  0  0  0  0
   -3.1100    5.5406  -16.4579 C   0  0  0  0  0  0  0  0  0  0  0  0
  1  2  1  0
  2  3  1  0
  3  4  1  0
  4  5  1  0
  5  6  1  0
  3  7  2  0
  7  8  1  0
  8  9  1  0
  9 10  2  0
  9 11  1  0
 11 12  1  0
 12 13  2  0
 13 14  1  0
 14 15  3  0
 13 16  1  0
 16 17  2  0
 17 18  1  0
 18 19  2  0
 19 20  1  0
 19 21  1  0
 21 22  2  0
 22 23  1  0
 23 24  2  0
  8 25  2  0
 25 26  1  0
 26 27  1  0
 27 28  1  0
 25  2  1  0
 28 26  1  0
  6  4  1  0
 24 12  1  0
 24 18  1  0
M  END
>  <name>  (1181) 
P139965

>  <alias>  (1181) 
None

>  <smina_score_min>  (1181) 
-6.366

>  <exports>  (1181) 
['/opt/xchem-fragalysis-2/maxwin/BulkDock/OUTPUTS/openbind_xx01zvns2b_c2_elabs_1LOUTNY.sdf', '/opt/xchem-fragalysis-2/maxwin/BulkDock/OUTPUTS/openbind_xx01zvns2b_c2_elabs_1LSYIIV.sdf']

>  <tags>  (1181) 
syndirella_placed,openbind_xx01zvns2b_c2_elabs,openbind_xx01zvns2b_c2_elabs_scored_6.2plus,syndirella_product,openbind_xx01zvns2b_c2_elabs_scored,openbind_xx01zvns2b_c2_elabs_scored_top80percent,BulkDock Fragalysis export

>  <subsites>  (1181) 
1 - Z4590/B/203/1

>  <smiles>  (1181) 
Cn1c(C2CC2)cc(C(=O)Nc2c(C#N)cnc3c(Br)cccc23)c1C1CC1

>  <HIPPO Pose ID>  (1181) 
139965

>  <energy_score>  (1181) 
-18.804951

>  <inchikey>  (1181) 
DQVPOQCFTODRKX-UHFFFAOYSA-N

>  <gnina_score_min>  (1181) 
6.222

>  <gnina_score>  (1181) 
6.232

>  <ref_mols>  (1181) 
Z1237a

>  <HIPPO Compound ID>  (1181) 
198588

>  <distance_score>  (1181) 
0.968979

>  <rmsd(smina/fragmenstein)>  (1181) 
0.723

>  <ref_pdb>  (1181) 
Z1237a

>  <inspiration_score>  (1181) 
None

$$$$
P139968
     RDKit          3D

 28 31  0  0  0  0  0  0  0  0999 V2000
  -10.3458    9.0853  -12.9479 C   0  0  0  0  0  0  0  0  0  0  0  0
   -8.9527    8.8417  -12.3981 C   0  0  0  0  0  0  0  0  0  0  0  0
   -8.8755    7.4806  -11.9572 O   0  0  0  0  0  0  0  0  0  0  0  0
   -7.8458    7.2247  -11.1121 C   0  0  0  0  0  0  0  0  0  0  0  0
   -7.0115    8.0070  -10.6901 O   0  0  0  0  0  0  0  0  0  0  0  0
   -7.9417    5.8276  -10.6771 C   0  0  0  0  0  0  0  0  0  0  0  0
   -8.1094    5.6784   -9.3046 C   0  0  0  0  0  0  0  0  0  0  0  0
   -8.4171    4.5123   -8.7036 N   0  0  0  0  0  0  0  0  0  0  0  0
   -8.5723    3.4421   -9.5172 C   0  0  0  0  0  0  0  0  0  0  0  0
   -9.1162    2.0579   -8.6755 Cl  0  0  0  0  0  0  0  0  0  0  0  0
   -8.3861    3.4813  -10.8961 C   0  0  0  0  0  0  0  0  0  0  0  0
   -8.5487    2.3927  -11.6668 F   0  0  0  0  0  0  0  0  0  0  0  0
   -8.0333    4.6956  -11.4988 C   0  0  0  0  0  0  0  0  0  0  0  0
   -7.7799    4.6947  -12.8845 N   0  0  0  0  0  0  0  0  0  0  0  0
   -6.9946    5.6950  -13.7613 C   0  0  0  0  0  0  0  0  0  0  0  0
   -6.5009    6.7148  -13.4866 O   0  0  0  0  0  0  0  0  0  0  0  0
   -6.9933    5.2590  -15.1689 C   0  0  0  0  0  0  0  0  0  0  0  0
   -8.0691    4.6693  -15.9032 C   0  0  0  0  0  0  0  0  0  0  0  0
   -7.6906    4.5984  -17.2259 C   0  0  0  0  0  0  0  0  0  0  0  0
   -8.5670    4.1745  -18.4380 C   0  0  0  0  0  0  0  0  0  0  0  0
  -10.0617    4.0879  -18.3530 C   0  0  0  0  0  0  0  0  0  0  0  0
   -9.2399    2.8404  -18.4322 C   0  0  0  0  0  0  0  0  0  0  0  0
   -6.3949    5.0307  -17.3211 N   0  0  0  0  0  0  0  0  0  0  0  0
   -5.6409    5.0903  -18.5511 C   0  0  0  0  0  0  0  0  0  0  0  0
   -5.9621    5.4429  -16.0862 C   0  0  0  0  0  0  0  0  0  0  0  0
   -4.5305    5.9664  -15.7456 C   0  0  0  0  0  0  0  0  0  0  0  0
   -4.3470    7.3959  -15.3030 C   0  0  0  0  0  0  0  0  0  0  0  0
   -3.8386    6.9668  -16.6399 C   0  0  0  0  0  0  0  0  0  0  0  0
  1  2  1  0
  2  3  1  0
  3  4  1  0
  4  5  2  0
  4  6  1  0
  6  7  2  0
  7  8  1  0
  8  9  2  0
  9 10  1  0
  9 11  1  0
 11 12  1  0
 11 13  2  0
 13 14  1  0
 14 15  1  0
 15 16  2  0
 15 17  1  0
 17 18  1  0
 18 19  2  0
 19 20  1  0
 20 21  1  0
 21 22  1  0
 19 23  1  0
 23 24  1  0
 23 25  1  0
 25 26  1  0
 26 27  1  0
 27 28  1  0
 13  6  1  0
 25 17  2  0
 28 26  1  0
 22 20  1  0
M  END
>  <name>  (1182) 
P139968

>  <alias>  (1182) 
None

>  <smina_score_min>  (1182) 
-6.754

>  <exports>  (1182) 
['/opt/xchem-fragalysis-2/maxwin/BulkDock/OUTPUTS/openbind_xx01zvns2b_c2_elabs_1LOUTNY.sdf', '/opt/xchem-fragalysis-2/maxwin/BulkDock/OUTPUTS/openbind_xx01zvns2b_c2_elabs_1LSYIIV.sdf']

>  <tags>  (1182) 
syndirella_placed,openbind_xx01zvns2b_c2_elabs,openbind_xx01zvns2b_c2_elabs_scored_6.2plus,syndirella_product,openbind_xx01zvns2b_c2_elabs_scored,openbind_xx01zvns2b_c2_elabs_scored_top80percent,BulkDock Fragalysis export

>  <subsites>  (1182) 
1 - Z4590/B/203/1

>  <smiles>  (1182) 
CCOC(=O)c1cnc(Cl)c(F)c1NC(=O)c1cc(C2CC2)n(C)c1C1CC1

>  <HIPPO Pose ID>  (1182) 
139968

>  <energy_score>  (1182) 
-35.544895

>  <inchikey>  (1182) 
ASAUAQJQPWXTQW-UHFFFAOYSA-N

>  <gnina_score_min>  (1182) 
6.439

>  <gnina_score>  (1182) 
6.284

>  <ref_mols>  (1182) 
Z1237a

>  <HIPPO Compound ID>  (1182) 
198593

>  <distance_score>  (1182) 
0.586618

>  <rmsd(smina/fragmenstein)>  (1182) 
0.583

>  <ref_pdb>  (1182) 
Z1237a

>  <inspiration_score>  (1182) 
None

$$$$
P139970
     RDKit          3D

 28 32  0  0  0  0  0  0  0  0999 V2000
   -5.6437    5.1015  -18.8622 C   0  0  0  0  0  0  0  0  0  0  0  0
   -6.3222    5.0483  -17.5890 N   0  0  0  0  0  0  0  0  0  0  0  0
   -7.6018    4.5914  -17.4053 C   0  0  0  0  0  0  0  0  0  0  0  0
   -8.5371    4.0857  -18.5373 C   0  0  0  0  0  0  0  0  0  0  0  0
   -9.2737    2.7977  -18.3660 C   0  0  0  0  0  0  0  0  0  0  0  0
  -10.0303    4.0883  -18.3849 C   0  0  0  0  0  0  0  0  0  0  0  0
   -7.9154    4.7156  -16.0705 C   0  0  0  0  0  0  0  0  0  0  0  0
   -6.8255    5.3807  -15.4411 C   0  0  0  0  0  0  0  0  0  0  0  0
   -6.8152    5.9224  -14.0908 C   0  0  0  0  0  0  0  0  0  0  0  0
   -6.8468    7.0742  -13.9230 O   0  0  0  0  0  0  0  0  0  0  0  0
   -6.8321    4.7673  -13.0775 N   0  0  0  0  0  0  0  0  0  0  0  0
   -6.9830    4.7805  -11.6838 C   0  0  0  0  0  0  0  0  0  0  0  0
   -7.8634    5.6616  -11.0452 C   0  0  0  0  0  0  0  0  0  0  0  0
   -8.6856    6.6086  -11.7268 C   0  0  0  0  0  0  0  0  0  0  0  0
   -9.3711    7.3778  -12.2638 N   0  0  0  0  0  0  0  0  0  0  0  0
   -7.9362    5.6115   -9.6650 C   0  0  0  0  0  0  0  0  0  0  0  0
   -7.1226    4.8621   -8.8937 N   0  0  0  0  0  0  0  0  0  0  0  0
   -6.1743    4.1366   -9.5058 C   0  0  0  0  0  0  0  0  0  0  0  0
   -5.1123    3.6744   -8.7398 C   0  0  0  0  0  0  0  0  0  0  0  0
   -4.0037    3.0539   -9.3188 C   0  0  0  0  0  0  0  0  0  0  0  0
   -2.2710    2.7261   -8.2101 I   0  0  0  0  0  0  0  0  0  0  0  0
   -3.9930    2.7727  -10.6737 C   0  0  0  0  0  0  0  0  0  0  0  0
   -5.0393    3.2406  -11.4621 C   0  0  0  0  0  0  0  0  0  0  0  0
   -6.1059    3.9890  -10.9070 C   0  0  0  0  0  0  0  0  0  0  0  0
   -5.8309    5.5117  -16.3944 C   0  0  0  0  0  0  0  0  0  0  0  0
   -4.4005    6.0659  -16.1345 C   0  0  0  0  0  0  0  0  0  0  0  0
   -4.2215    7.4643  -15.6041 C   0  0  0  0  0  0  0  0  0  0  0  0
   -3.8424    7.1534  -17.0175 C   0  0  0  0  0  0  0  0  0  0  0  0
  1  2  1  0
  2  3  1  0
  3  4  1  0
  4  5  1  0
  5  6  1  0
  3  7  2  0
  7  8  1  0
  8  9  1  0
  9 10  2  0
  9 11  1  0
 11 12  1  0
 12 13  2  0
 13 14  1  0
 14 15  3  0
 13 16  1  0
 16 17  2  0
 17 18  1  0
 18 19  2  0
 19 20  1  0
 20 21  1  0
 20 22  2  0
 22 23  1  0
 23 24  2  0
  8 25  2  0
 25 26  1  0
 26 27  1  0
 27 28  1  0
 25  2  1  0
 28 26  1  0
  6  4  1  0
 24 12  1  0
 24 18  1  0
M  END
>  <name>  (1183) 
P139970

>  <alias>  (1183) 
None

>  <smina_score_min>  (1183) 
-6.451

>  <exports>  (1183) 
['/opt/xchem-fragalysis-2/maxwin/BulkDock/OUTPUTS/openbind_xx01zvns2b_c2_elabs_1LOUTNY.sdf', '/opt/xchem-fragalysis-2/maxwin/BulkDock/OUTPUTS/openbind_xx01zvns2b_c2_elabs_1LSYIIV.sdf']

>  <tags>  (1183) 
syndirella_placed,openbind_xx01zvns2b_c2_elabs,openbind_xx01zvns2b_c2_elabs_scored_6.2plus,syndirella_product,openbind_xx01zvns2b_c2_elabs_scored,openbind_xx01zvns2b_c2_elabs_scored_top80percent,BulkDock Fragalysis export

>  <subsites>  (1183) 
1 - Z4590/B/203/1

>  <smiles>  (1183) 
Cn1c(C2CC2)cc(C(=O)Nc2c(C#N)cnc3cc(I)ccc23)c1C1CC1

>  <HIPPO Pose ID>  (1183) 
139970

>  <energy_score>  (1183) 
-15.781383

>  <inchikey>  (1183) 
HYHBGTZQKFHZGR-UHFFFAOYSA-N

>  <gnina_score_min>  (1183) 
6.214

>  <gnina_score>  (1183) 
6.295

>  <ref_mols>  (1183) 
Z1237a

>  <HIPPO Compound ID>  (1183) 
198596

>  <distance_score>  (1183) 
1.127609

>  <rmsd(smina/fragmenstein)>  (1183) 
0.756

>  <ref_pdb>  (1183) 
Z1237a

>  <inspiration_score>  (1183) 
None

$$$$
P139971
     RDKit          3D

 29 32  0  0  0  0  0  0  0  0999 V2000
   -5.6876    5.2653  -18.6048 C   0  0  0  0  0  0  0  0  0  0  0  0
   -6.3779    5.0642  -17.3529 N   0  0  0  0  0  0  0  0  0  0  0  0
   -7.6534    4.5708  -17.2530 C   0  0  0  0  0  0  0  0  0  0  0  0
   -8.5257    4.1304  -18.4629 C   0  0  0  0  0  0  0  0  0  0  0  0
  -10.0241    4.0920  -18.3865 C   0  0  0  0  0  0  0  0  0  0  0  0
   -9.2403    2.8184  -18.4200 C   0  0  0  0  0  0  0  0  0  0  0  0
   -8.0254    4.6056  -15.9267 C   0  0  0  0  0  0  0  0  0  0  0  0
   -6.9645    5.2167  -15.1926 C   0  0  0  0  0  0  0  0  0  0  0  0
   -6.9754    5.6801  -13.7962 C   0  0  0  0  0  0  0  0  0  0  0  0
   -6.4677    6.7007  -13.5394 O   0  0  0  0  0  0  0  0  0  0  0  0
   -7.7908    4.7114  -12.9027 N   0  0  0  0  0  0  0  0  0  0  0  0
   -8.0613    4.7509  -11.5260 C   0  0  0  0  0  0  0  0  0  0  0  0
   -8.2998    3.5576  -10.8334 C   0  0  0  0  0  0  0  0  0  0  0  0
   -8.4996    3.6236   -9.4556 C   0  0  0  0  0  0  0  0  0  0  0  0
   -8.9875    2.0855   -8.4739 Br  0  0  0  0  0  0  0  0  0  0  0  0
   -8.4442    4.7707   -8.7434 N   0  0  0  0  0  0  0  0  0  0  0  0
   -8.2672    5.9098   -9.4391 C   0  0  0  0  0  0  0  0  0  0  0  0
   -8.1012    5.9591  -10.8150 C   0  0  0  0  0  0  0  0  0  0  0  0
   -8.2758    7.2757  -11.4540 C   0  0  0  0  0  0  0  0  0  0  0  0
   -9.0702    7.4751  -12.3590 O   0  0  0  0  0  0  0  0  0  0  0  0
   -7.4958    8.1803  -10.8170 O   0  0  0  0  0  0  0  0  0  0  0  0
   -7.5625    9.5837  -11.1754 C   0  0  0  0  0  0  0  0  0  0  0  0
   -7.1197    9.8205  -12.6230 C   0  0  0  0  0  0  0  0  0  0  0  0
   -6.5615   10.2738  -10.2366 C   0  0  0  0  0  0  0  0  0  0  0  0
   -8.9597   10.1551  -10.9058 C   0  0  0  0  0  0  0  0  0  0  0  0
   -5.9417    5.4382  -16.1088 C   0  0  0  0  0  0  0  0  0  0  0  0
   -4.5837    6.1246  -15.7689 C   0  0  0  0  0  0  0  0  0  0  0  0
   -3.7138    5.5048  -14.7031 C   0  0  0  0  0  0  0  0  0  0  0  0
   -3.2740    5.4797  -16.1334 C   0  0  0  0  0  0  0  0  0  0  0  0
  1  2  1  0
  2  3  1  0
  3  4  1  0
  4  5  1  0
  5  6  1  0
  3  7  2  0
  7  8  1  0
  8  9  1  0
  9 10  2  0
  9 11  1  0
 11 12  1  0
 12 13  2  0
 13 14  1  0
 14 15  1  0
 14 16  2  0
 16 17  1  0
 17 18  2  0
 18 19  1  0
 19 20  2  0
 19 21  1  0
 21 22  1  0
 22 23  1  0
 22 24  1  0
 22 25  1  0
  8 26  2  0
 26 27  1  0
 27 28  1  0
 28 29  1  0
 26  2  1  0
 29 27  1  0
  6  4  1  0
 18 12  1  0
M  END
>  <name>  (1184) 
P139971

>  <alias>  (1184) 
None

>  <smina_score_min>  (1184) 
-6.587

>  <exports>  (1184) 
['/opt/xchem-fragalysis-2/maxwin/BulkDock/OUTPUTS/openbind_xx01zvns2b_c2_elabs_1LOUTNY.sdf', '/opt/xchem-fragalysis-2/maxwin/BulkDock/OUTPUTS/openbind_xx01zvns2b_c2_elabs_1LSYIIV.sdf']

>  <tags>  (1184) 
syndirella_placed,openbind_xx01zvns2b_c2_elabs,openbind_xx01zvns2b_c2_elabs_scored_6.2plus,syndirella_product,openbind_xx01zvns2b_c2_elabs_scored,openbind_xx01zvns2b_c2_elabs_scored_top80percent,BulkDock Fragalysis export

>  <subsites>  (1184) 
1 - Z4590/B/203/1

>  <smiles>  (1184) 
Cn1c(C2CC2)cc(C(=O)Nc2cc(Br)ncc2C(=O)OC(C)(C)C)c1C1CC1

>  <HIPPO Pose ID>  (1184) 
139971

>  <energy_score>  (1184) 
-52.573905

>  <inchikey>  (1184) 
XOCSUVNLEYNIJL-UHFFFAOYSA-N

>  <gnina_score_min>  (1184) 
6.39

>  <gnina_score>  (1184) 
6.282

>  <ref_mols>  (1184) 
Z1237a

>  <HIPPO Compound ID>  (1184) 
198597

>  <distance_score>  (1184) 
0.627756

>  <rmsd(smina/fragmenstein)>  (1184) 
0.927

>  <ref_pdb>  (1184) 
Z1237a

>  <inspiration_score>  (1184) 
None

$$$$
P139973
     RDKit          3D

 29 34  0  0  0  0  0  0  0  0999 V2000
   -5.6082    5.0842  -18.7694 C   0  0  0  0  0  0  0  0  0  0  0  0
   -6.3005    5.0586  -17.5031 N   0  0  0  0  0  0  0  0  0  0  0  0
   -7.5883    4.6197  -17.3280 C   0  0  0  0  0  0  0  0  0  0  0  0
   -8.5172    4.1249  -18.4771 C   0  0  0  0  0  0  0  0  0  0  0  0
  -10.0121    4.1047  -18.3377 C   0  0  0  0  0  0  0  0  0  0  0  0
   -9.2412    2.8243  -18.3482 C   0  0  0  0  0  0  0  0  0  0  0  0
   -7.9153    4.7811  -15.9985 C   0  0  0  0  0  0  0  0  0  0  0  0
   -6.8384    5.4876  -15.3785 C   0  0  0  0  0  0  0  0  0  0  0  0
   -6.8709    6.1510  -14.0749 C   0  0  0  0  0  0  0  0  0  0  0  0
   -6.8299    7.3147  -14.0210 O   0  0  0  0  0  0  0  0  0  0  0  0
   -7.0612    5.1062  -12.9605 N   0  0  0  0  0  0  0  0  0  0  0  0
   -7.3327    5.2722  -11.5743 C   0  0  0  0  0  0  0  0  0  0  0  0
   -7.7766    6.4389  -10.9292 C   0  0  0  0  0  0  0  0  0  0  0  0
   -8.2467    6.3034   -9.6120 C   0  0  0  0  0  0  0  0  0  0  0  0
   -8.3441    5.1261   -8.9598 N   0  0  0  0  0  0  0  0  0  0  0  0
   -7.8395    4.0452   -9.5450 C   0  0  0  0  0  0  0  0  0  0  0  0
   -7.8782    2.8609   -8.8489 C   0  0  0  0  0  0  0  0  0  0  0  0
   -7.2213    1.7336   -9.3278 C   0  0  0  0  0  0  0  0  0  0  0  0
   -6.4792    1.7853  -10.4928 C   0  0  0  0  0  0  0  0  0  0  0  0
   -6.4919    2.9568  -11.2289 C   0  0  0  0  0  0  0  0  0  0  0  0
   -7.2333    4.0813  -10.8107 C   0  0  0  0  0  0  0  0  0  0  0  0
   -8.6292    7.5016   -8.7831 C   0  0  0  0  0  0  0  0  0  0  0  0
   -9.1851    8.6349   -9.6252 C   0  0  0  0  0  0  0  0  0  0  0  0
   -8.1565    8.9931  -10.6758 C   0  0  0  0  0  0  0  0  0  0  0  0
   -7.8243    7.7971  -11.5712 C   0  0  0  0  0  0  0  0  0  0  0  0
   -5.8238    5.5622  -16.3186 C   0  0  0  0  0  0  0  0  0  0  0  0
   -4.3886    6.1050  -16.0540 C   0  0  0  0  0  0  0  0  0  0  0  0
   -3.7696    7.1139  -16.9886 C   0  0  0  0  0  0  0  0  0  0  0  0
   -4.1904    7.5326  -15.6161 C   0  0  0  0  0  0  0  0  0  0  0  0
  1  2  1  0
  2  3  1  0
  3  4  1  0
  4  5  1  0
  5  6  1  0
  3  7  2  0
  7  8  1  0
  8  9  1  0
  9 10  2  0
  9 11  1  0
 11 12  1  0
 12 13  2  0
 13 14  1  0
 14 15  2  0
 15 16  1  0
 16 17  2  0
 17 18  1  0
 18 19  2  0
 19 20  1  0
 20 21  2  0
 14 22  1  0
 22 23  1  0
 23 24  1  0
 24 25  1  0
  8 26  2  0
 26 27  1  0
 27 28  1  0
 28 29  1  0
 26  2  1  0
 29 27  1  0
  6  4  1  0
 21 12  1  0
 25 13  1  0
 21 16  1  0
M  END
>  <name>  (1185) 
P139973

>  <alias>  (1185) 
None

>  <smina_score_min>  (1185) 
-6.822

>  <exports>  (1185) 
['/opt/xchem-fragalysis-2/maxwin/BulkDock/OUTPUTS/openbind_xx01zvns2b_c2_elabs_1LOUTNY.sdf', '/opt/xchem-fragalysis-2/maxwin/BulkDock/OUTPUTS/openbind_xx01zvns2b_c2_elabs_1LSYIIV.sdf']

>  <tags>  (1185) 
syndirella_placed,openbind_xx01zvns2b_c2_elabs,openbind_xx01zvns2b_c2_elabs_scored_6.2plus,syndirella_product,openbind_xx01zvns2b_c2_elabs_scored,openbind_xx01zvns2b_c2_elabs_scored_top80percent,BulkDock Fragalysis export

>  <subsites>  (1185) 
1 - Z4590/B/203/1

>  <smiles>  (1185) 
Cn1c(C2CC2)cc(C(=O)Nc2c3c(nc4ccccc24)CCCC3)c1C1CC1

>  <HIPPO Pose ID>  (1185) 
139973

>  <energy_score>  (1185) 
-30.598429

>  <inchikey>  (1185) 
HWDIFHHJXTUNNX-UHFFFAOYSA-N

>  <gnina_score_min>  (1185) 
6.409

>  <gnina_score>  (1185) 
6.425

>  <ref_mols>  (1185) 
Z1237a

>  <HIPPO Compound ID>  (1185) 
198599

>  <distance_score>  (1185) 
1.051299

>  <rmsd(smina/fragmenstein)>  (1185) 
1.214

>  <ref_pdb>  (1185) 
Z1237a

>  <inspiration_score>  (1185) 
None

$$$$
P139974
     RDKit          3D

 29 33  0  0  0  0  0  0  0  0999 V2000
   -8.7574    7.3614   -8.6611 C   0  0  0  0  0  0  0  0  0  0  0  0
   -8.3386    6.2265   -9.5573 C   0  0  0  0  0  0  0  0  0  0  0  0
   -8.3626    5.0315   -8.9324 N   0  0  0  0  0  0  0  0  0  0  0  0
   -7.8436    3.9851   -9.5590 C   0  0  0  0  0  0  0  0  0  0  0  0
   -7.8154    2.7862   -8.8888 C   0  0  0  0  0  0  0  0  0  0  0  0
   -7.1169    1.7001   -9.4028 C   0  0  0  0  0  0  0  0  0  0  0  0
   -6.4057    1.8086  -10.5807 C   0  0  0  0  0  0  0  0  0  0  0  0
   -6.4917    2.9944  -11.2896 C   0  0  0  0  0  0  0  0  0  0  0  0
   -7.2780    4.0764  -10.8368 C   0  0  0  0  0  0  0  0  0  0  0  0
   -7.4507    5.2776  -11.5799 C   0  0  0  0  0  0  0  0  0  0  0  0
   -7.1569    5.1069  -12.9628 N   0  0  0  0  0  0  0  0  0  0  0  0
   -6.7863    6.1398  -14.0418 C   0  0  0  0  0  0  0  0  0  0  0  0
   -6.5871    7.2847  -13.9550 O   0  0  0  0  0  0  0  0  0  0  0  0
   -6.8016    5.5016  -15.3645 C   0  0  0  0  0  0  0  0  0  0  0  0
   -7.8944    4.8049  -15.9752 C   0  0  0  0  0  0  0  0  0  0  0  0
   -7.5866    4.6401  -17.3095 C   0  0  0  0  0  0  0  0  0  0  0  0
   -8.5266    4.1490  -18.4537 C   0  0  0  0  0  0  0  0  0  0  0  0
  -10.0193    4.1116  -18.3017 C   0  0  0  0  0  0  0  0  0  0  0  0
   -9.2361    2.8395  -18.3351 C   0  0  0  0  0  0  0  0  0  0  0  0
   -6.2986    5.0708  -17.5013 N   0  0  0  0  0  0  0  0  0  0  0  0
   -5.6201    5.0750  -18.7755 C   0  0  0  0  0  0  0  0  0  0  0  0
   -5.8049    5.5784  -16.3258 C   0  0  0  0  0  0  0  0  0  0  0  0
   -4.3620    6.1144  -16.0824 C   0  0  0  0  0  0  0  0  0  0  0  0
   -4.1509    7.5567  -15.7007 C   0  0  0  0  0  0  0  0  0  0  0  0
   -3.7259    7.0797  -17.0518 C   0  0  0  0  0  0  0  0  0  0  0  0
   -7.9613    6.4112  -10.9107 C   0  0  0  0  0  0  0  0  0  0  0  0
   -8.1445    7.8002  -11.4864 C   0  0  0  0  0  0  0  0  0  0  0  0
   -9.0623    7.8927  -12.7066 C   0  0  0  0  0  0  0  0  0  0  0  0
   -6.8159    8.5669  -11.5417 C   0  0  0  0  0  0  0  0  0  0  0  0
  1  2  1  0
  2  3  2  0
  3  4  1  0
  4  5  2  0
  5  6  1  0
  6  7  2  0
  7  8  1  0
  8  9  2  0
  9 10  1  0
 10 11  1  0
 11 12  1  0
 12 13  2  0
 12 14  1  0
 14 15  1  0
 15 16  2  0
 16 17  1  0
 17 18  1  0
 18 19  1  0
 16 20  1  0
 20 21  1  0
 20 22  1  0
 22 23  1  0
 23 24  1  0
 24 25  1  0
 10 26  2  0
 26 27  1  0
 27 28  1  0
 27 29  1  0
 26  2  1  0
  9  4  1  0
 22 14  2  0
 25 23  1  0
 19 17  1  0
M  END
>  <name>  (1186) 
P139974

>  <alias>  (1186) 
None

>  <smina_score_min>  (1186) 
-6.084

>  <exports>  (1186) 
['/opt/xchem-fragalysis-2/maxwin/BulkDock/OUTPUTS/openbind_xx01zvns2b_c2_elabs_1LOUTNY.sdf', '/opt/xchem-fragalysis-2/maxwin/BulkDock/OUTPUTS/openbind_xx01zvns2b_c2_elabs_1LSYIIV.sdf']

>  <tags>  (1186) 
syndirella_placed,openbind_xx01zvns2b_c2_elabs,openbind_xx01zvns2b_c2_elabs_scored_6.2plus,syndirella_product,openbind_xx01zvns2b_c2_elabs_scored,openbind_xx01zvns2b_c2_elabs_scored_top80percent,BulkDock Fragalysis export

>  <subsites>  (1186) 
1 - Z4590/B/203/1

>  <smiles>  (1186) 
Cc1nc2ccccc2c(NC(=O)c2cc(C3CC3)n(C)c2C2CC2)c1C(C)C

>  <HIPPO Pose ID>  (1186) 
139974

>  <energy_score>  (1186) 
-28.498684

>  <inchikey>  (1186) 
OPMNVRJTELYBNO-UHFFFAOYSA-N

>  <gnina_score_min>  (1186) 
6.33

>  <gnina_score>  (1186) 
6.354

>  <ref_mols>  (1186) 
Z1237a

>  <HIPPO Compound ID>  (1186) 
198600

>  <distance_score>  (1186) 
1.008305

>  <rmsd(smina/fragmenstein)>  (1186) 
1.212

>  <ref_pdb>  (1186) 
Z1237a

>  <inspiration_score>  (1186) 
None

$$$$
P139975
     RDKit          3D

 29 33  0  0  0  0  0  0  0  0999 V2000
   -6.1356    0.6352   -9.7835 C   0  0  0  0  0  0  0  0  0  0  0  0
   -6.3683    2.0507  -10.1520 C   0  0  0  0  0  0  0  0  0  0  0  0
   -5.5300    2.5161  -11.1491 C   0  0  0  0  0  0  0  0  0  0  0  0
   -5.8155    3.7162  -11.7494 C   0  0  0  0  0  0  0  0  0  0  0  0
   -6.8588    4.5355  -11.2912 C   0  0  0  0  0  0  0  0  0  0  0  0
   -7.3557    5.6449  -12.0135 C   0  0  0  0  0  0  0  0  0  0  0  0
   -7.2414    5.6539  -13.4165 N   0  0  0  0  0  0  0  0  0  0  0  0
   -5.9951    5.5470  -14.3223 C   0  0  0  0  0  0  0  0  0  0  0  0
   -4.8611    5.5124  -14.0478 O   0  0  0  0  0  0  0  0  0  0  0  0
   -6.4259    5.3748  -15.7196 C   0  0  0  0  0  0  0  0  0  0  0  0
   -7.6329    4.7779  -16.2187 C   0  0  0  0  0  0  0  0  0  0  0  0
   -7.5319    4.6954  -17.5907 C   0  0  0  0  0  0  0  0  0  0  0  0
   -8.5774    4.1072  -18.5840 C   0  0  0  0  0  0  0  0  0  0  0  0
   -9.2962    2.8411  -18.2497 C   0  0  0  0  0  0  0  0  0  0  0  0
  -10.0490    4.1313  -18.2922 C   0  0  0  0  0  0  0  0  0  0  0  0
   -6.3057    5.1883  -17.9498 N   0  0  0  0  0  0  0  0  0  0  0  0
   -5.7770    5.1829  -19.2917 C   0  0  0  0  0  0  0  0  0  0  0  0
   -5.6503    5.6388  -16.8354 C   0  0  0  0  0  0  0  0  0  0  0  0
   -4.2250    6.2603  -16.7973 C   0  0  0  0  0  0  0  0  0  0  0  0
   -4.0518    7.6414  -16.2158 C   0  0  0  0  0  0  0  0  0  0  0  0
   -3.8955    7.4304  -17.6893 C   0  0  0  0  0  0  0  0  0  0  0  0
   -8.2560    6.5028  -11.3940 C   0  0  0  0  0  0  0  0  0  0  0  0
   -8.7763    7.6519  -12.0473 C   0  0  0  0  0  0  0  0  0  0  0  0
   -9.2207    8.5630  -12.6129 N   0  0  0  0  0  0  0  0  0  0  0  0
   -8.6410    6.2274  -10.1021 C   0  0  0  0  0  0  0  0  0  0  0  0
   -8.3443    5.0774   -9.4795 N   0  0  0  0  0  0  0  0  0  0  0  0
   -7.5204    4.1980  -10.0934 C   0  0  0  0  0  0  0  0  0  0  0  0
   -7.3508    2.8994   -9.6114 C   0  0  0  0  0  0  0  0  0  0  0  0
   -8.6515    2.2935   -8.3358 Br  0  0  0  0  0  0  0  0  0  0  0  0
  1  2  1  0
  2  3  2  0
  3  4  1  0
  4  5  2  0
  5  6  1  0
  6  7  1  0
  7  8  1  0
  8  9  2  0
  8 10  1  0
 10 11  1  0
 11 12  2  0
 12 13  1  0
 13 14  1  0
 14 15  1  0
 12 16  1  0
 16 17  1  0
 16 18  1  0
 18 19  1  0
 19 20  1  0
 20 21  1  0
  6 22  2  0
 22 23  1  0
 23 24  3  0
 22 25  1  0
 25 26  2  0
 26 27  1  0
 27 28  2  0
 28 29  1  0
 28  2  1  0
 27  5  1  0
 18 10  2  0
 21 19  1  0
 15 13  1  0
M  END
>  <name>  (1187) 
P139975

>  <alias>  (1187) 
None

>  <smina_score_min>  (1187) 
-5.943

>  <exports>  (1187) 
['/opt/xchem-fragalysis-2/maxwin/BulkDock/OUTPUTS/openbind_xx01zvns2b_c2_elabs_1LOUTNY.sdf', '/opt/xchem-fragalysis-2/maxwin/BulkDock/OUTPUTS/openbind_xx01zvns2b_c2_elabs_1LSYIIV.sdf']

>  <tags>  (1187) 
syndirella_placed,openbind_xx01zvns2b_c2_elabs,openbind_xx01zvns2b_c2_elabs_scored_6.2plus,syndirella_product,openbind_xx01zvns2b_c2_elabs_scored,openbind_xx01zvns2b_c2_elabs_scored_top80percent,BulkDock Fragalysis export

>  <subsites>  (1187) 
1 - Z4590/B/203/1

>  <smiles>  (1187) 
Cc1ccc2c(NC(=O)c3cc(C4CC4)n(C)c3C3CC3)c(C#N)cnc2c1Br

>  <HIPPO Pose ID>  (1187) 
139975

>  <energy_score>  (1187) 
-5.820455

>  <inchikey>  (1187) 
BTHBDYQRDVTFGU-UHFFFAOYSA-N

>  <gnina_score_min>  (1187) 
6.352

>  <gnina_score>  (1187) 
6.365

>  <ref_mols>  (1187) 
Z1237a

>  <HIPPO Compound ID>  (1187) 
198601

>  <distance_score>  (1187) 
1.234645

>  <rmsd(smina/fragmenstein)>  (1187) 
0.451

>  <ref_pdb>  (1187) 
Z1237a

>  <inspiration_score>  (1187) 
None

$$$$
P139980
     RDKit          3D

 29 34  0  0  0  0  0  0  0  0999 V2000
   -5.6150    5.0767  -18.6284 C   0  0  0  0  0  0  0  0  0  0  0  0
   -6.3590    5.0727  -17.3913 N   0  0  0  0  0  0  0  0  0  0  0  0
   -7.6514    4.6376  -17.2678 C   0  0  0  0  0  0  0  0  0  0  0  0
   -8.5382    4.1558  -18.4539 C   0  0  0  0  0  0  0  0  0  0  0  0
   -9.2367    2.8373  -18.3790 C   0  0  0  0  0  0  0  0  0  0  0  0
  -10.0351    4.1014  -18.3566 C   0  0  0  0  0  0  0  0  0  0  0  0
   -8.0236    4.7816  -15.9493 C   0  0  0  0  0  0  0  0  0  0  0  0
   -6.9622    5.4570  -15.2622 C   0  0  0  0  0  0  0  0  0  0  0  0
   -6.9832    6.0151  -13.8933 C   0  0  0  0  0  0  0  0  0  0  0  0
   -6.4460    7.0259  -13.6673 O   0  0  0  0  0  0  0  0  0  0  0  0
   -7.8387    5.1105  -12.9802 N   0  0  0  0  0  0  0  0  0  0  0  0
   -8.1273    5.2096  -11.6022 C   0  0  0  0  0  0  0  0  0  0  0  0
   -8.2631    4.0254  -10.8841 C   0  0  0  0  0  0  0  0  0  0  0  0
   -8.2969    4.0763   -9.4935 C   0  0  0  0  0  0  0  0  0  0  0  0
   -8.3100    5.2154   -8.7859 N   0  0  0  0  0  0  0  0  0  0  0  0
   -8.3042    6.3608   -9.4760 C   0  0  0  0  0  0  0  0  0  0  0  0
   -8.4049    7.5330   -8.7414 C   0  0  0  0  0  0  0  0  0  0  0  0
   -8.4783    8.7845   -9.3501 C   0  0  0  0  0  0  0  0  0  0  0  0
   -8.4492    8.8708  -10.7311 C   0  0  0  0  0  0  0  0  0  0  0  0
   -8.3304    7.7062  -11.4907 C   0  0  0  0  0  0  0  0  0  0  0  0
   -8.2251    6.4294  -10.8914 C   0  0  0  0  0  0  0  0  0  0  0  0
   -8.1737    2.7620   -8.7737 C   0  0  0  0  0  0  0  0  0  0  0  0
   -7.0402    1.9945   -9.4699 C   0  0  0  0  0  0  0  0  0  0  0  0
   -7.1124    1.9656  -10.9119 O   0  0  0  0  0  0  0  0  0  0  0  0
   -8.2473    2.6460  -11.4301 C   0  0  0  0  0  0  0  0  0  0  0  0
   -5.9259    5.5658  -16.1853 C   0  0  0  0  0  0  0  0  0  0  0  0
   -4.4929    6.1023  -15.8739 C   0  0  0  0  0  0  0  0  0  0  0  0
   -4.2999    7.5589  -15.5356 C   0  0  0  0  0  0  0  0  0  0  0  0
   -3.7826    7.0282  -16.8318 C   0  0  0  0  0  0  0  0  0  0  0  0
  1  2  1  0
  2  3  1  0
  3  4  1  0
  4  5  1  0
  5  6  1  0
  3  7  2  0
  7  8  1  0
  8  9  1  0
  9 10  2  0
  9 11  1  0
 11 12  1  0
 12 13  2  0
 13 14  1  0
 14 15  2  0
 15 16  1  0
 16 17  2  0
 17 18  1  0
 18 19  2  0
 19 20  1  0
 20 21  2  0
 14 22  1  0
 22 23  1  0
 23 24  1  0
 24 25  1  0
  8 26  2  0
 26 27  1  0
 27 28  1  0
 28 29  1  0
 26  2  1  0
 29 27  1  0
  6  4  1  0
 21 12  1  0
 25 13  1  0
 21 16  1  0
M  END
>  <name>  (1188) 
P139980

>  <alias>  (1188) 
None

>  <smina_score_min>  (1188) 
-7.146

>  <exports>  (1188) 
['/opt/xchem-fragalysis-2/maxwin/BulkDock/OUTPUTS/openbind_xx01zvns2b_c2_elabs_1LOUTNY.sdf', '/opt/xchem-fragalysis-2/maxwin/BulkDock/OUTPUTS/openbind_xx01zvns2b_c2_elabs_1LSYIIV.sdf']

>  <tags>  (1188) 
syndirella_placed,openbind_xx01zvns2b_c2_elabs,openbind_xx01zvns2b_c2_elabs_scored_6.2plus,syndirella_product,openbind_xx01zvns2b_c2_elabs_scored,openbind_xx01zvns2b_c2_elabs_scored_top80percent,BulkDock Fragalysis export

>  <subsites>  (1188) 
1 - Z4590/B/203/1

>  <smiles>  (1188) 
Cn1c(C2CC2)cc(C(=O)Nc2c3c(nc4ccccc24)CCOC3)c1C1CC1

>  <HIPPO Pose ID>  (1188) 
139980

>  <energy_score>  (1188) 
-33.724266

>  <inchikey>  (1188) 
UZQWPUDWCXOYBX-UHFFFAOYSA-N

>  <gnina_score_min>  (1188) 
6.223

>  <gnina_score>  (1188) 
6.139

>  <ref_mols>  (1188) 
Z1237a

>  <HIPPO Compound ID>  (1188) 
198607

>  <distance_score>  (1188) 
0.897555

>  <rmsd(smina/fragmenstein)>  (1188) 
0.841

>  <ref_pdb>  (1188) 
Z1237a

>  <inspiration_score>  (1188) 
None

$$$$
P139981
     RDKit          3D

 29 33  0  0  0  0  0  0  0  0999 V2000
   -8.8898    7.9452  -12.9158 C   0  0  0  0  0  0  0  0  0  0  0  0
   -8.4079    7.7750  -11.5128 C   0  0  0  0  0  0  0  0  0  0  0  0
   -8.1342    8.7532  -10.8198 O   0  0  0  0  0  0  0  0  0  0  0  0
   -8.2667    6.4260  -10.9441 C   0  0  0  0  0  0  0  0  0  0  0  0
   -8.6682    6.3021   -9.6274 C   0  0  0  0  0  0  0  0  0  0  0  0
   -8.6377    5.1483   -8.9442 N   0  0  0  0  0  0  0  0  0  0  0  0
   -8.0412    4.1105   -9.5247 C   0  0  0  0  0  0  0  0  0  0  0  0
   -8.0547    2.9366   -8.8153 C   0  0  0  0  0  0  0  0  0  0  0  0
   -7.2850    1.8639   -9.2255 C   0  0  0  0  0  0  0  0  0  0  0  0
   -6.4415    1.9995  -10.3073 C   0  0  0  0  0  0  0  0  0  0  0  0
   -5.0434    0.7629  -10.5296 Br  0  0  0  0  0  0  0  0  0  0  0  0
   -6.5577    3.1024  -11.1400 C   0  0  0  0  0  0  0  0  0  0  0  0
   -7.4011    4.1767  -10.7886 C   0  0  0  0  0  0  0  0  0  0  0  0
   -7.6458    5.3406  -11.5677 C   0  0  0  0  0  0  0  0  0  0  0  0
   -7.4178    5.3675  -12.9585 N   0  0  0  0  0  0  0  0  0  0  0  0
   -6.1467    5.0445  -13.7727 C   0  0  0  0  0  0  0  0  0  0  0  0
   -5.0684    4.7803  -13.4168 O   0  0  0  0  0  0  0  0  0  0  0  0
   -6.4826    5.0518  -15.2236 C   0  0  0  0  0  0  0  0  0  0  0  0
   -7.6932    4.6007  -15.8710 C   0  0  0  0  0  0  0  0  0  0  0  0
   -7.5143    4.6821  -17.2374 C   0  0  0  0  0  0  0  0  0  0  0  0
   -8.4752    4.2102  -18.3862 C   0  0  0  0  0  0  0  0  0  0  0  0
   -9.1930    2.8993  -18.2885 C   0  0  0  0  0  0  0  0  0  0  0  0
   -9.9677    4.1717  -18.2272 C   0  0  0  0  0  0  0  0  0  0  0  0
   -6.2782    5.2367  -17.4569 N   0  0  0  0  0  0  0  0  0  0  0  0
   -5.7577    5.5380  -18.7701 C   0  0  0  0  0  0  0  0  0  0  0  0
   -5.6382    5.4431  -16.2582 C   0  0  0  0  0  0  0  0  0  0  0  0
   -4.2246    6.0897  -16.0861 C   0  0  0  0  0  0  0  0  0  0  0  0
   -3.0944    5.3275  -15.4475 C   0  0  0  0  0  0  0  0  0  0  0  0
   -3.0640    5.5912  -16.9163 C   0  0  0  0  0  0  0  0  0  0  0  0
  1  2  1  0
  2  3  2  0
  2  4  1  0
  4  5  2  0
  5  6  1  0
  6  7  2  0
  7  8  1  0
  8  9  2  0
  9 10  1  0
 10 11  1  0
 10 12  2  0
 12 13  1  0
 13 14  2  0
 14 15  1  0
 15 16  1  0
 16 17  2  0
 16 18  1  0
 18 19  1  0
 19 20  2  0
 20 21  1  0
 21 22  1  0
 22 23  1  0
 20 24  1  0
 24 25  1  0
 24 26  1  0
 26 27  1  0
 27 28  1  0
 28 29  1  0
 14  4  1  0
 26 18  2  0
 29 27  1  0
 13  7  1  0
 23 21  1  0
M  END
>  <name>  (1189) 
P139981

>  <alias>  (1189) 
None

>  <smina_score_min>  (1189) 
-7.341

>  <exports>  (1189) 
['/opt/xchem-fragalysis-2/maxwin/BulkDock/OUTPUTS/openbind_xx01zvns2b_c2_elabs_1LOUTNY.sdf', '/opt/xchem-fragalysis-2/maxwin/BulkDock/OUTPUTS/openbind_xx01zvns2b_c2_elabs_1LSYIIV.sdf']

>  <tags>  (1189) 
syndirella_placed,openbind_xx01zvns2b_c2_elabs,openbind_xx01zvns2b_c2_elabs_scored_6.2plus,syndirella_product,openbind_xx01zvns2b_c2_elabs_scored,openbind_xx01zvns2b_c2_elabs_scored_top80percent,BulkDock Fragalysis export

>  <subsites>  (1189) 
1 - Z4590/B/203/1

>  <smiles>  (1189) 
CC(=O)c1cnc2ccc(Br)cc2c1NC(=O)c1cc(C2CC2)n(C)c1C1CC1

>  <HIPPO Pose ID>  (1189) 
139981

>  <energy_score>  (1189) 
-15.219048

>  <inchikey>  (1189) 
HASBGQJYJMDWHX-UHFFFAOYSA-N

>  <gnina_score_min>  (1189) 
6.27

>  <gnina_score>  (1189) 
6.288

>  <ref_mols>  (1189) 
Z1237a

>  <HIPPO Compound ID>  (1189) 
198609

>  <distance_score>  (1189) 
0.975115

>  <rmsd(smina/fragmenstein)>  (1189) 
0.957

>  <ref_pdb>  (1189) 
Z1237a

>  <inspiration_score>  (1189) 
None

$$$$
P139982
     RDKit          3D

 29 33  0  0  0  0  0  0  0  0999 V2000
   -5.6868    5.1545  -18.6871 C   0  0  0  0  0  0  0  0  0  0  0  0
   -6.3445    5.0405  -17.4067 N   0  0  0  0  0  0  0  0  0  0  0  0
   -7.6413    4.6007  -17.2790 C   0  0  0  0  0  0  0  0  0  0  0  0
   -8.5605    4.1791  -18.4632 C   0  0  0  0  0  0  0  0  0  0  0  0
   -9.2381    2.8468  -18.4282 C   0  0  0  0  0  0  0  0  0  0  0  0
  -10.0529    4.0972  -18.3355 C   0  0  0  0  0  0  0  0  0  0  0  0
   -7.9873    4.6529  -15.9507 C   0  0  0  0  0  0  0  0  0  0  0  0
   -6.8880    5.2163  -15.2372 C   0  0  0  0  0  0  0  0  0  0  0  0
   -6.8720    5.6196  -13.8191 C   0  0  0  0  0  0  0  0  0  0  0  0
   -6.3615    6.6247  -13.5133 O   0  0  0  0  0  0  0  0  0  0  0  0
   -7.6755    4.6032  -12.9705 N   0  0  0  0  0  0  0  0  0  0  0  0
   -7.9296    4.5665  -11.5865 C   0  0  0  0  0  0  0  0  0  0  0  0
   -8.1821    3.2992  -11.0419 C   0  0  0  0  0  0  0  0  0  0  0  0
   -8.3716    3.1694   -9.6742 C   0  0  0  0  0  0  0  0  0  0  0  0
   -8.3552    4.2109   -8.8234 N   0  0  0  0  0  0  0  0  0  0  0  0
   -8.1476    5.4269   -9.3757 C   0  0  0  0  0  0  0  0  0  0  0  0
   -7.9417    5.6893  -10.7380 C   0  0  0  0  0  0  0  0  0  0  0  0
   -7.8605    7.0984  -11.1577 C   0  0  0  0  0  0  0  0  0  0  0  0
   -8.8031    7.6538  -12.0431 C   0  0  0  0  0  0  0  0  0  0  0  0
   -8.7424    9.0016  -12.4091 C   0  0  0  0  0  0  0  0  0  0  0  0
   -7.7348    9.8071  -11.8941 C   0  0  0  0  0  0  0  0  0  0  0  0
   -7.6740   11.0968  -12.2524 F   0  0  0  0  0  0  0  0  0  0  0  0
   -6.7939    9.2970  -11.0137 C   0  0  0  0  0  0  0  0  0  0  0  0
   -6.8660    7.9548  -10.6513 C   0  0  0  0  0  0  0  0  0  0  0  0
   -5.9534    7.4870   -9.7843 F   0  0  0  0  0  0  0  0  0  0  0  0
   -5.8646    5.4116  -16.1687 C   0  0  0  0  0  0  0  0  0  0  0  0
   -4.4558    5.9850  -15.7648 C   0  0  0  0  0  0  0  0  0  0  0  0
   -3.1821    5.4320  -16.3353 C   0  0  0  0  0  0  0  0  0  0  0  0
   -3.6329    6.8207  -16.7021 C   0  0  0  0  0  0  0  0  0  0  0  0
  1  2  1  0
  2  3  1  0
  3  4  1  0
  4  5  1  0
  5  6  1  0
  3  7  2  0
  7  8  1  0
  8  9  1  0
  9 10  2  0
  9 11  1  0
 11 12  1  0
 12 13  2  0
 13 14  1  0
 14 15  2  0
 15 16  1  0
 16 17  2  0
 17 18  1  0
 18 19  2  0
 19 20  1  0
 20 21  2  0
 21 22  1  0
 21 23  1  0
 23 24  2  0
 24 25  1  0
  8 26  2  0
 26 27  1  0
 27 28  1  0
 28 29  1  0
 26  2  1  0
 29 27  1  0
  6  4  1  0
 17 12  1  0
 24 18  1  0
M  END
>  <name>  (1190) 
P139982

>  <alias>  (1190) 
None

>  <smina_score_min>  (1190) 
-6.942

>  <exports>  (1190) 
['/opt/xchem-fragalysis-2/maxwin/BulkDock/OUTPUTS/openbind_xx01zvns2b_c2_elabs_1LOUTNY.sdf', '/opt/xchem-fragalysis-2/maxwin/BulkDock/OUTPUTS/openbind_xx01zvns2b_c2_elabs_1LSYIIV.sdf']

>  <tags>  (1190) 
syndirella_placed,openbind_xx01zvns2b_c2_elabs,openbind_xx01zvns2b_c2_elabs_scored_6.2plus,syndirella_product,openbind_xx01zvns2b_c2_elabs_scored,openbind_xx01zvns2b_c2_elabs_scored_top80percent,BulkDock Fragalysis export

>  <subsites>  (1190) 
1 - Z4590/B/203/1

>  <smiles>  (1190) 
Cn1c(C2CC2)cc(C(=O)Nc2ccncc2-c2ccc(F)cc2F)c1C1CC1

>  <HIPPO Pose ID>  (1190) 
139982

>  <energy_score>  (1190) 
-25.724365

>  <inchikey>  (1190) 
UMIBJDIFPSNEQA-UHFFFAOYSA-N

>  <gnina_score_min>  (1190) 
6.441

>  <gnina_score>  (1190) 
6.32

>  <ref_mols>  (1190) 
Z1237a

>  <HIPPO Compound ID>  (1190) 
198611

>  <distance_score>  (1190) 
0.512119

>  <rmsd(smina/fragmenstein)>  (1190) 
0.895

>  <ref_pdb>  (1190) 
Z1237a

>  <inspiration_score>  (1190) 
None

$$$$
P139983
     RDKit          3D

 29 33  0  0  0  0  0  0  0  0999 V2000
   -7.7657    8.7900  -11.7351 C   0  0  0  0  0  0  0  0  0  0  0  0
   -8.4674    7.4714  -11.9311 C   0  0  0  0  0  0  0  0  0  0  0  0
   -9.3957    7.3263  -12.7251 O   0  0  0  0  0  0  0  0  0  0  0  0
   -8.0534    6.3287  -11.1016 C   0  0  0  0  0  0  0  0  0  0  0  0
   -8.4306    6.3143   -9.7577 C   0  0  0  0  0  0  0  0  0  0  0  0
   -8.9509    7.5318   -9.0517 C   0  0  0  0  0  0  0  0  0  0  0  0
   -8.3894    5.1910   -9.0034 N   0  0  0  0  0  0  0  0  0  0  0  0
   -7.8922    4.0756   -9.5470 C   0  0  0  0  0  0  0  0  0  0  0  0
   -7.8987    2.9195   -8.8038 C   0  0  0  0  0  0  0  0  0  0  0  0
   -7.2624    1.7731   -9.2693 C   0  0  0  0  0  0  0  0  0  0  0  0
   -6.5392    1.7880  -10.4484 C   0  0  0  0  0  0  0  0  0  0  0  0
   -6.5811    2.9272  -11.2287 C   0  0  0  0  0  0  0  0  0  0  0  0
   -7.3367    4.0450  -10.8375 C   0  0  0  0  0  0  0  0  0  0  0  0
   -7.5036    5.1721  -11.6607 C   0  0  0  0  0  0  0  0  0  0  0  0
   -7.1927    5.0344  -13.0259 N   0  0  0  0  0  0  0  0  0  0  0  0
   -6.7557    6.0831  -14.0619 C   0  0  0  0  0  0  0  0  0  0  0  0
   -6.5088    7.2147  -13.9333 O   0  0  0  0  0  0  0  0  0  0  0  0
   -6.7741    5.4799  -15.3998 C   0  0  0  0  0  0  0  0  0  0  0  0
   -7.8748    4.7967  -16.0117 C   0  0  0  0  0  0  0  0  0  0  0  0
   -7.5745    4.6361  -17.3468 C   0  0  0  0  0  0  0  0  0  0  0  0
   -8.5223    4.1366  -18.4793 C   0  0  0  0  0  0  0  0  0  0  0  0
   -9.2413    2.8347  -18.3353 C   0  0  0  0  0  0  0  0  0  0  0  0
  -10.0148    4.1131  -18.3185 C   0  0  0  0  0  0  0  0  0  0  0  0
   -6.2892    5.0713  -17.5449 N   0  0  0  0  0  0  0  0  0  0  0  0
   -5.6194    5.0800  -18.8234 C   0  0  0  0  0  0  0  0  0  0  0  0
   -5.7870    5.5717  -16.3689 C   0  0  0  0  0  0  0  0  0  0  0  0
   -4.3446    6.1118  -16.1344 C   0  0  0  0  0  0  0  0  0  0  0  0
   -4.1376    7.5523  -15.7434 C   0  0  0  0  0  0  0  0  0  0  0  0
   -3.7240    7.0886  -17.1026 C   0  0  0  0  0  0  0  0  0  0  0  0
  1  2  1  0
  2  3  2  0
  2  4  1  0
  4  5  2  0
  5  6  1  0
  5  7  1  0
  7  8  2  0
  8  9  1  0
  9 10  2  0
 10 11  1  0
 11 12  2  0
 12 13  1  0
 13 14  2  0
 14 15  1  0
 15 16  1  0
 16 17  2  0
 16 18  1  0
 18 19  1  0
 19 20  2  0
 20 21  1  0
 21 22  1  0
 22 23  1  0
 20 24  1  0
 24 25  1  0
 24 26  1  0
 26 27  1  0
 27 28  1  0
 28 29  1  0
 14  4  1  0
 26 18  2  0
 29 27  1  0
 13  8  1  0
 23 21  1  0
M  END
>  <name>  (1191) 
P139983

>  <alias>  (1191) 
None

>  <smina_score_min>  (1191) 
-6.33

>  <exports>  (1191) 
['/opt/xchem-fragalysis-2/maxwin/BulkDock/OUTPUTS/openbind_xx01zvns2b_c2_elabs_1LOUTNY.sdf', '/opt/xchem-fragalysis-2/maxwin/BulkDock/OUTPUTS/openbind_xx01zvns2b_c2_elabs_1LSYIIV.sdf']

>  <tags>  (1191) 
syndirella_placed,openbind_xx01zvns2b_c2_elabs,openbind_xx01zvns2b_c2_elabs_scored_6.2plus,syndirella_product,openbind_xx01zvns2b_c2_elabs_scored,openbind_xx01zvns2b_c2_elabs_scored_top80percent,BulkDock Fragalysis export

>  <subsites>  (1191) 
1 - Z4590/B/203/1

>  <smiles>  (1191) 
CC(=O)c1c(C)nc2ccccc2c1NC(=O)c1cc(C2CC2)n(C)c1C1CC1

>  <HIPPO Pose ID>  (1191) 
139983

>  <energy_score>  (1191) 
-48.917682

>  <inchikey>  (1191) 
NWMLZWDZHGHRTK-UHFFFAOYSA-N

>  <gnina_score_min>  (1191) 
6.257

>  <gnina_score>  (1191) 
6.186

>  <ref_mols>  (1191) 
Z1237a

>  <HIPPO Compound ID>  (1191) 
198612

>  <distance_score>  (1191) 
0.994414

>  <rmsd(smina/fragmenstein)>  (1191) 
1.105

>  <ref_pdb>  (1191) 
Z1237a

>  <inspiration_score>  (1191) 
None

$$$$
P139985
     RDKit          3D

 29 33  0  0  0  0  0  0  0  0999 V2000
   -8.2892    7.6782  -11.9897 C   0  0  0  0  0  0  0  0  0  0  0  0
   -8.1209    6.4991  -11.0876 C   0  0  0  0  0  0  0  0  0  0  0  0
   -8.2480    6.7539   -9.7407 C   0  0  0  0  0  0  0  0  0  0  0  0
   -8.2926    5.8020   -8.8162 N   0  0  0  0  0  0  0  0  0  0  0  0
   -8.2685    4.5038   -9.2002 C   0  0  0  0  0  0  0  0  0  0  0  0
   -8.5998    3.6498   -8.0449 C   0  0  0  0  0  0  0  0  0  0  0  0
   -8.5129    4.1926   -6.7378 C   0  0  0  0  0  0  0  0  0  0  0  0
   -9.0855    3.5388   -5.6652 C   0  0  0  0  0  0  0  0  0  0  0  0
   -9.7232    2.3743   -5.7876 N   0  0  0  0  0  0  0  0  0  0  0  0
   -9.6750    1.8189   -7.0066 C   0  0  0  0  0  0  0  0  0  0  0  0
  -10.2113    0.5809   -7.0672 O   0  0  0  0  0  0  0  0  0  0  0  0
   -9.1572    2.3878   -8.1569 C   0  0  0  0  0  0  0  0  0  0  0  0
   -8.0694    4.1420  -10.5407 C   0  0  0  0  0  0  0  0  0  0  0  0
   -7.9189    5.1708  -11.4902 C   0  0  0  0  0  0  0  0  0  0  0  0
   -7.5695    4.9026  -12.8261 N   0  0  0  0  0  0  0  0  0  0  0  0
   -6.8108    5.7748  -13.8651 C   0  0  0  0  0  0  0  0  0  0  0  0
   -6.2931    6.8173  -13.7458 O   0  0  0  0  0  0  0  0  0  0  0  0
   -6.8567    5.2074  -15.2221 C   0  0  0  0  0  0  0  0  0  0  0  0
   -7.9565    4.5970  -15.9000 C   0  0  0  0  0  0  0  0  0  0  0  0
   -7.6416    4.5502  -17.2435 C   0  0  0  0  0  0  0  0  0  0  0  0
   -8.5618    4.1351  -18.4287 C   0  0  0  0  0  0  0  0  0  0  0  0
   -9.2563    2.8132  -18.3967 C   0  0  0  0  0  0  0  0  0  0  0  0
  -10.0538    4.0756  -18.3034 C   0  0  0  0  0  0  0  0  0  0  0  0
   -6.3597    5.0117  -17.4017 N   0  0  0  0  0  0  0  0  0  0  0  0
   -5.7193    5.1965  -18.6831 C   0  0  0  0  0  0  0  0  0  0  0  0
   -5.8666    5.3928  -16.1833 C   0  0  0  0  0  0  0  0  0  0  0  0
   -4.4924    6.0834  -15.9169 C   0  0  0  0  0  0  0  0  0  0  0  0
   -3.1987    5.4328  -16.3233 C   0  0  0  0  0  0  0  0  0  0  0  0
   -3.5792    5.4831  -14.8766 C   0  0  0  0  0  0  0  0  0  0  0  0
  1  2  1  0
  2  3  2  0
  3  4  1  0
  4  5  2  0
  5  6  1  0
  6  7  2  0
  7  8  1  0
  8  9  2  0
  9 10  1  0
 10 11  1  0
 10 12  2  0
  5 13  1  0
 13 14  2  0
 14 15  1  0
 15 16  1  0
 16 17  2  0
 16 18  1  0
 18 19  1  0
 19 20  2  0
 20 21  1  0
 21 22  1  0
 22 23  1  0
 20 24  1  0
 24 25  1  0
 24 26  1  0
 26 27  1  0
 27 28  1  0
 28 29  1  0
 14  2  1  0
 26 18  2  0
 29 27  1  0
 12  6  1  0
 23 21  1  0
M  END
>  <name>  (1192) 
P139985

>  <alias>  (1192) 
None

>  <smina_score_min>  (1192) 
-8.245

>  <exports>  (1192) 
['/opt/xchem-fragalysis-2/maxwin/BulkDock/OUTPUTS/openbind_xx01zvns2b_c2_elabs_1LOUTNY.sdf', '/opt/xchem-fragalysis-2/maxwin/BulkDock/OUTPUTS/openbind_xx01zvns2b_c2_elabs_1LSYIIV.sdf']

>  <tags>  (1192) 
syndirella_placed,openbind_xx01zvns2b_c2_elabs,openbind_xx01zvns2b_c2_elabs_scored_6.2plus,syndirella_product,openbind_xx01zvns2b_c2_elabs_scored,openbind_xx01zvns2b_c2_elabs_scored_top80percent,BulkDock Fragalysis export

>  <subsites>  (1192) 
1 - Z4590/B/203/1

>  <smiles>  (1192) 
Cc1cnc(-c2ccnc(O)c2)cc1NC(=O)c1cc(C2CC2)n(C)c1C1CC1

>  <HIPPO Pose ID>  (1192) 
139985

>  <energy_score>  (1192) 
-21.42119

>  <inchikey>  (1192) 
ZGAHMNVPRPGGDH-UHFFFAOYSA-N

>  <gnina_score_min>  (1192) 
6.293

>  <gnina_score>  (1192) 
6.278

>  <ref_mols>  (1192) 
Z1237a

>  <HIPPO Compound ID>  (1192) 
198615

>  <distance_score>  (1192) 
1.000282

>  <rmsd(smina/fragmenstein)>  (1192) 
0.559

>  <ref_pdb>  (1192) 
Z1237a

>  <inspiration_score>  (1192) 
None

$$$$
P139987
     RDKit          3D

 30 34  0  0  0  0  0  0  0  0999 V2000
   -5.6664    5.1697  -18.6232 C   0  0  0  0  0  0  0  0  0  0  0  0
   -6.3579    4.9936  -17.3661 N   0  0  0  0  0  0  0  0  0  0  0  0
   -7.6598    4.5805  -17.2659 C   0  0  0  0  0  0  0  0  0  0  0  0
   -8.5557    4.1749  -18.4676 C   0  0  0  0  0  0  0  0  0  0  0  0
   -9.2385    2.8447  -18.4487 C   0  0  0  0  0  0  0  0  0  0  0  0
  -10.0503    4.0983  -18.3689 C   0  0  0  0  0  0  0  0  0  0  0  0
   -8.0285    4.6579  -15.9447 C   0  0  0  0  0  0  0  0  0  0  0  0
   -6.9210    5.1896  -15.2140 C   0  0  0  0  0  0  0  0  0  0  0  0
   -6.9768    5.6532  -13.8274 C   0  0  0  0  0  0  0  0  0  0  0  0
   -6.6443    6.7420  -13.5706 O   0  0  0  0  0  0  0  0  0  0  0  0
   -7.6002    4.5566  -12.9298 N   0  0  0  0  0  0  0  0  0  0  0  0
   -7.8439    4.5420  -11.5747 C   0  0  0  0  0  0  0  0  0  0  0  0
   -7.8622    3.2379  -10.9528 C   0  0  0  0  0  0  0  0  0  0  0  0
   -8.1196    3.0926   -9.6485 C   0  0  0  0  0  0  0  0  0  0  0  0
   -8.3638    4.1742   -8.8102 N   0  0  0  0  0  0  0  0  0  0  0  0
   -8.7459    3.9701   -7.4246 C   0  0  0  0  0  0  0  0  0  0  0  0
   -9.4169    2.7990   -7.0321 C   0  0  0  0  0  0  0  0  0  0  0  0
   -9.8878    2.6355   -5.7255 C   0  0  0  0  0  0  0  0  0  0  0  0
   -9.6740    3.6257   -4.7731 C   0  0  0  0  0  0  0  0  0  0  0  0
   -8.9803    4.7755   -5.1229 C   0  0  0  0  0  0  0  0  0  0  0  0
   -8.5199    4.9413   -6.4333 C   0  0  0  0  0  0  0  0  0  0  0  0
   -8.3192    5.4835   -9.3367 C   0  0  0  0  0  0  0  0  0  0  0  0
   -8.4922    6.5177   -8.6880 O   0  0  0  0  0  0  0  0  0  0  0  0
   -8.1026    5.6267  -10.8172 C   0  0  0  0  0  0  0  0  0  0  0  0
   -8.3677    6.9246  -11.3430 C   0  0  0  0  0  0  0  0  0  0  0  0
   -8.6813    7.9587  -11.7724 N   0  0  0  0  0  0  0  0  0  0  0  0
   -5.8627    5.2782  -16.1115 C   0  0  0  0  0  0  0  0  0  0  0  0
   -4.3600    5.6244  -15.8448 C   0  0  0  0  0  0  0  0  0  0  0  0
   -4.0042    7.0315  -15.4543 C   0  0  0  0  0  0  0  0  0  0  0  0
   -3.7699    5.8986  -14.4939 C   0  0  0  0  0  0  0  0  0  0  0  0
  1  2  1  0
  2  3  1  0
  3  4  1  0
  4  5  1  0
  5  6  1  0
  3  7  2  0
  7  8  1  0
  8  9  1  0
  9 10  2  0
  9 11  1  0
 11 12  1  0
 12 13  1  0
 13 14  2  0
 14 15  1  0
 15 16  1  0
 16 17  2  0
 17 18  1  0
 18 19  2  0
 19 20  1  0
 20 21  2  0
 15 22  1  0
 22 23  2  0
 22 24  1  0
 24 25  1  0
 25 26  3  0
  8 27  2  0
 27 28  1  0
 28 29  1  0
 29 30  1  0
 27  2  1  0
 30 28  1  0
  6  4  1  0
 24 12  2  0
 21 16  1  0
M  END
>  <name>  (1193) 
P139987

>  <alias>  (1193) 
None

>  <smina_score_min>  (1193) 
-7.619

>  <exports>  (1193) 
['/opt/xchem-fragalysis-2/maxwin/BulkDock/OUTPUTS/openbind_xx01zvns2b_c2_elabs_1LOUTNY.sdf', '/opt/xchem-fragalysis-2/maxwin/BulkDock/OUTPUTS/openbind_xx01zvns2b_c2_elabs_1LSYIIV.sdf']

>  <tags>  (1193) 
syndirella_placed,openbind_xx01zvns2b_c2_elabs,openbind_xx01zvns2b_c2_elabs_scored_6.2plus,syndirella_product,openbind_xx01zvns2b_c2_elabs_scored,openbind_xx01zvns2b_c2_elabs_scored_top80percent,BulkDock Fragalysis export

>  <subsites>  (1193) 
1 - Z4590/B/203/1

>  <smiles>  (1193) 
Cn1c(C2CC2)cc(C(=O)Nc2ccn(-c3ccccc3)c(=O)c2C#N)c1C1CC1

>  <HIPPO Pose ID>  (1193) 
139987

>  <energy_score>  (1193) 
-31.063629

>  <inchikey>  (1193) 
YMWOBPJNXPEKRB-UHFFFAOYSA-N

>  <gnina_score_min>  (1193) 
6.318

>  <gnina_score>  (1193) 
6.303

>  <ref_mols>  (1193) 
Z1237a

>  <HIPPO Compound ID>  (1193) 
198620

>  <distance_score>  (1193) 
0.492205

>  <rmsd(smina/fragmenstein)>  (1193) 
0.347

>  <ref_pdb>  (1193) 
Z1237a

>  <inspiration_score>  (1193) 
None

$$$$
P139988
     RDKit          3D

 30 35  0  0  0  0  0  0  0  0999 V2000
   -8.0006    7.8593   -7.9036 C   0  0  0  0  0  0  0  0  0  0  0  0
   -8.2693    7.7668   -9.3624 C   0  0  0  0  0  0  0  0  0  0  0  0
   -8.4347    8.9499  -10.1020 C   0  0  0  0  0  0  0  0  0  0  0  0
   -8.5945    8.8870  -11.4700 C   0  0  0  0  0  0  0  0  0  0  0  0
   -8.5265    7.6463  -12.0854 C   0  0  0  0  0  0  0  0  0  0  0  0
   -8.3122    6.4521  -11.3462 C   0  0  0  0  0  0  0  0  0  0  0  0
   -8.1763    5.1780  -11.9207 C   0  0  0  0  0  0  0  0  0  0  0  0
   -7.8446    5.0455  -13.2727 N   0  0  0  0  0  0  0  0  0  0  0  0
   -6.9363    5.9136  -14.1731 C   0  0  0  0  0  0  0  0  0  0  0  0
   -6.3850    6.9170  -13.9476 O   0  0  0  0  0  0  0  0  0  0  0  0
   -6.8986    5.3552  -15.5270 C   0  0  0  0  0  0  0  0  0  0  0  0
   -7.9655    4.6809  -16.1858 C   0  0  0  0  0  0  0  0  0  0  0  0
   -7.6249    4.5561  -17.5097 C   0  0  0  0  0  0  0  0  0  0  0  0
   -8.5444    4.0153  -18.6296 C   0  0  0  0  0  0  0  0  0  0  0  0
   -9.3100    2.7552  -18.3966 C   0  0  0  0  0  0  0  0  0  0  0  0
  -10.0379    4.0615  -18.4898 C   0  0  0  0  0  0  0  0  0  0  0  0
   -6.3513    5.0262  -17.6729 N   0  0  0  0  0  0  0  0  0  0  0  0
   -5.6540    5.0709  -18.9344 C   0  0  0  0  0  0  0  0  0  0  0  0
   -5.8876    5.5001  -16.4705 C   0  0  0  0  0  0  0  0  0  0  0  0
   -4.4587    6.0601  -16.1842 C   0  0  0  0  0  0  0  0  0  0  0  0
   -4.2814    7.5155  -15.8327 C   0  0  0  0  0  0  0  0  0  0  0  0
   -3.7871    7.0094  -17.1473 C   0  0  0  0  0  0  0  0  0  0  0  0
   -8.2434    4.0499  -11.1075 C   0  0  0  0  0  0  0  0  0  0  0  0
   -8.2131    4.2222   -9.7289 C   0  0  0  0  0  0  0  0  0  0  0  0
   -8.1928    5.4282   -9.1529 N   0  0  0  0  0  0  0  0  0  0  0  0
   -8.2662    6.5110   -9.9481 C   0  0  0  0  0  0  0  0  0  0  0  0
   -8.0362    3.0049   -8.8612 C   0  0  0  0  0  0  0  0  0  0  0  0
   -6.9045    2.1355   -9.4305 C   0  0  0  0  0  0  0  0  0  0  0  0
   -6.8811    2.0573  -10.9610 C   0  0  0  0  0  0  0  0  0  0  0  0
   -8.1549    2.6393  -11.5653 C   0  0  0  0  0  0  0  0  0  0  0  0
  1  2  1  0
  2  3  2  0
  3  4  1  0
  4  5  2  0
  5  6  1  0
  6  7  2  0
  7  8  1  0
  8  9  1  0
  9 10  2  0
  9 11  1  0
 11 12  1  0
 12 13  2  0
 13 14  1  0
 14 15  1  0
 15 16  1  0
 13 17  1  0
 17 18  1  0
 17 19  1  0
 19 20  1  0
 20 21  1  0
 21 22  1  0
  7 23  1  0
 23 24  2  0
 24 25  1  0
 25 26  2  0
 24 27  1  0
 27 28  1  0
 28 29  1  0
 29 30  1  0
 26  2  1  0
 26  6  1  0
 19 11  2  0
 22 20  1  0
 30 23  1  0
 16 14  1  0
M  END
>  <name>  (1194) 
P139988

>  <alias>  (1194) 
None

>  <smina_score_min>  (1194) 
-7.046

>  <exports>  (1194) 
['/opt/xchem-fragalysis-2/maxwin/BulkDock/OUTPUTS/openbind_xx01zvns2b_c2_elabs_1LOUTNY.sdf', '/opt/xchem-fragalysis-2/maxwin/BulkDock/OUTPUTS/openbind_xx01zvns2b_c2_elabs_1LSYIIV.sdf']

>  <tags>  (1194) 
syndirella_placed,openbind_xx01zvns2b_c2_elabs,openbind_xx01zvns2b_c2_elabs_scored_6.2plus,syndirella_product,openbind_xx01zvns2b_c2_elabs_scored,openbind_xx01zvns2b_c2_elabs_scored_top80percent,BulkDock Fragalysis export

>  <subsites>  (1194) 
1 - Z4590/B/203/1

>  <smiles>  (1194) 
Cc1cccc2c(NC(=O)c3cc(C4CC4)n(C)c3C3CC3)c3c(nc12)CCCC3

>  <HIPPO Pose ID>  (1194) 
139988

>  <energy_score>  (1194) 
-18.335093

>  <inchikey>  (1194) 
UOIIOTOZESZHOS-UHFFFAOYSA-N

>  <gnina_score_min>  (1194) 
6.461

>  <gnina_score>  (1194) 
6.243

>  <ref_mols>  (1194) 
Z1237a

>  <HIPPO Compound ID>  (1194) 
198621

>  <distance_score>  (1194) 
1.369652

>  <rmsd(smina/fragmenstein)>  (1194) 
1.166

>  <ref_pdb>  (1194) 
Z1237a

>  <inspiration_score>  (1194) 
None

$$$$
P139996
     RDKit          3D

 32 35  0  0  0  0  0  0  0  0999 V2000
   -5.8379    1.1151  -10.1624 C   0  0  0  0  0  0  0  0  0  0  0  0
   -5.9762    2.4458   -9.4463 C   0  0  0  0  0  0  0  0  0  0  0  0
   -7.3792    2.7404   -9.0362 N   0  0  0  0  0  0  0  0  0  0  0  0
   -7.5180    3.4171   -7.7172 C   0  0  0  0  0  0  0  0  0  0  0  0
   -8.3230    4.7096   -7.8693 C   0  0  0  0  0  0  0  0  0  0  0  0
   -8.2699    4.8965   -9.3371 C   0  0  0  0  0  0  0  0  0  0  0  0
   -8.4672    6.0446  -10.0790 C   0  0  0  0  0  0  0  0  0  0  0  0
   -8.3072    5.9668  -11.4640 C   0  0  0  0  0  0  0  0  0  0  0  0
   -8.0550    4.7345  -12.0814 C   0  0  0  0  0  0  0  0  0  0  0  0
   -7.8458    4.6330  -13.4465 N   0  0  0  0  0  0  0  0  0  0  0  0
   -7.5934    5.7200  -14.5003 C   0  0  0  0  0  0  0  0  0  0  0  0
   -7.4443    6.8684  -14.3798 O   0  0  0  0  0  0  0  0  0  0  0  0
   -7.5850    5.1307  -15.8461 C   0  0  0  0  0  0  0  0  0  0  0  0
   -8.7904    4.6832  -16.3704 C   0  0  0  0  0  0  0  0  0  0  0  0
   -8.8564    4.3575  -17.7148 C   0  0  0  0  0  0  0  0  0  0  0  0
  -10.3790    3.9891  -18.3946 Cl  0  0  0  0  0  0  0  0  0  0  0  0
   -7.7204    4.4068  -18.5148 C   0  0  0  0  0  0  0  0  0  0  0  0
   -6.4999    4.7805  -17.9531 C   0  0  0  0  0  0  0  0  0  0  0  0
   -5.3684    4.7755  -18.7516 N   0  0  0  0  0  0  0  0  0  0  0  0
   -3.8967    4.9377  -18.3865 C   0  0  0  0  0  0  0  0  0  0  0  0
   -3.3835    5.0257  -17.3487 O   0  0  0  0  0  0  0  0  0  0  0  0
   -3.2472    4.9935  -19.5777 O   0  0  0  0  0  0  0  0  0  0  0  0
   -1.8512    5.3142  -19.4985 C   0  0  0  0  0  0  0  0  0  0  0  0
   -1.6304    6.7938  -19.7181 C   0  0  0  0  0  0  0  0  0  0  0  0
   -0.5204    7.2170  -20.4609 C   0  0  0  0  0  0  0  0  0  0  0  0
   -0.2874    8.5759  -20.6782 C   0  0  0  0  0  0  0  0  0  0  0  0
   -1.1534    9.5291  -20.1465 C   0  0  0  0  0  0  0  0  0  0  0  0
   -2.2449    9.1261  -19.3837 C   0  0  0  0  0  0  0  0  0  0  0  0
   -2.4758    7.7684  -19.1625 C   0  0  0  0  0  0  0  0  0  0  0  0
   -6.4290    5.1656  -16.6168 C   0  0  0  0  0  0  0  0  0  0  0  0
   -7.9223    3.5774  -11.3258 C   0  0  0  0  0  0  0  0  0  0  0  0
   -7.9144    3.6990   -9.9474 C   0  0  0  0  0  0  0  0  0  0  0  0
  1  2  1  0
  2  3  1  0
  3  4  1  0
  4  5  1  0
  5  6  1  0
  6  7  2  0
  7  8  1  0
  8  9  2  0
  9 10  1  0
 10 11  1  0
 11 12  2  0
 11 13  1  0
 13 14  2  0
 14 15  1  0
 15 16  1  0
 15 17  2  0
 17 18  1  0
 18 19  1  0
 19 20  1  0
 20 21  2  0
 20 22  1  0
 22 23  1  0
 23 24  1  0
 24 25  2  0
 25 26  1  0
 26 27  2  0
 27 28  1  0
 28 29  2  0
 18 30  2  0
  9 31  1  0
 31 32  2  0
 32  3  1  0
 32  6  1  0
 30 13  1  0
 29 24  1  0
M  END
>  <name>  (1195) 
P139996

>  <alias>  (1195) 
None

>  <smina_score_min>  (1195) 
-7.107

>  <exports>  (1195) 
['/opt/xchem-fragalysis-2/maxwin/BulkDock/OUTPUTS/openbind_xx01zvns2b_c2_elabs_1LOUTNY.sdf', '/opt/xchem-fragalysis-2/maxwin/BulkDock/OUTPUTS/openbind_xx01zvns2b_c2_elabs_1LSYIIV.sdf']

>  <tags>  (1195) 
syndirella_placed,openbind_xx01zvns2b_c2_elabs,openbind_xx01zvns2b_c2_elabs_scored_6.2plus,syndirella_product,openbind_xx01zvns2b_c2_elabs_scored,openbind_xx01zvns2b_c2_elabs_scored_top80percent,BulkDock Fragalysis export

>  <subsites>  (1195) 
1 - Z4590/B/203/1

>  <smiles>  (1195) 
CCN1CCc2ccc(NC(=O)c3cc(Cl)cc(NC(=O)OCc4ccccc4)c3)cc21

>  <HIPPO Pose ID>  (1195) 
139996

>  <energy_score>  (1195) 
-9.461021

>  <inchikey>  (1195) 
UVFOFTDECFPULA-UHFFFAOYSA-N

>  <gnina_score_min>  (1195) 
6.254

>  <gnina_score>  (1195) 
6.132

>  <ref_mols>  (1195) 
Z3024a

>  <HIPPO Compound ID>  (1195) 
198767

>  <distance_score>  (1195) 
0.895702

>  <rmsd(smina/fragmenstein)>  (1195) 
1.958

>  <ref_pdb>  (1195) 
Z3024a

>  <inspiration_score>  (1195) 
None

$$$$
P140027
     RDKit          3D

 34 37  0  0  0  0  0  0  0  0999 V2000
   -3.6907    3.8565   -8.8923 C   0  0  0  0  0  0  0  0  0  0  0  0
   -5.2018    3.7545   -8.7311 C   0  0  0  0  0  0  0  0  0  0  0  0
   -5.7396    2.4683   -9.3616 C   0  0  0  0  0  0  0  0  0  0  0  0
   -7.1319    1.9450   -8.9486 C   0  0  0  0  0  0  0  0  0  0  0  0
   -8.2205    2.8949   -8.7480 N   0  0  0  0  0  0  0  0  0  0  0  0
   -8.3841    3.5448   -7.4449 C   0  0  0  0  0  0  0  0  0  0  0  0
   -8.3133    5.0654   -7.6610 C   0  0  0  0  0  0  0  0  0  0  0  0
   -8.3534    5.1691   -9.1484 C   0  0  0  0  0  0  0  0  0  0  0  0
   -8.2799    6.3027   -9.9329 C   0  0  0  0  0  0  0  0  0  0  0  0
   -8.1640    6.1395  -11.3154 C   0  0  0  0  0  0  0  0  0  0  0  0
   -8.1705    4.8610  -11.8943 C   0  0  0  0  0  0  0  0  0  0  0  0
   -8.0201    4.6983  -13.2668 N   0  0  0  0  0  0  0  0  0  0  0  0
   -7.6295    5.7133  -14.3583 C   0  0  0  0  0  0  0  0  0  0  0  0
   -7.4468    6.8634  -14.2910 O   0  0  0  0  0  0  0  0  0  0  0  0
   -7.5881    5.0865  -15.6914 C   0  0  0  0  0  0  0  0  0  0  0  0
   -8.7807    4.6532  -16.2596 C   0  0  0  0  0  0  0  0  0  0  0  0
   -8.8134    4.3487  -17.6130 C   0  0  0  0  0  0  0  0  0  0  0  0
  -10.3142    3.9820  -18.3473 Cl  0  0  0  0  0  0  0  0  0  0  0  0
   -7.6591    4.4158  -18.3847 C   0  0  0  0  0  0  0  0  0  0  0  0
   -6.4527    4.7760  -17.7855 C   0  0  0  0  0  0  0  0  0  0  0  0
   -5.3041    4.7793  -18.5603 N   0  0  0  0  0  0  0  0  0  0  0  0
   -3.8425    4.9583  -18.1650 C   0  0  0  0  0  0  0  0  0  0  0  0
   -3.3522    5.0562  -17.1171 O   0  0  0  0  0  0  0  0  0  0  0  0
   -3.1688    5.0006  -19.3426 O   0  0  0  0  0  0  0  0  0  0  0  0
   -1.7811    5.3484  -19.2466 C   0  0  0  0  0  0  0  0  0  0  0  0
   -1.5986    6.8101  -19.5789 C   0  0  0  0  0  0  0  0  0  0  0  0
   -2.4091    7.8028  -19.0041 C   0  0  0  0  0  0  0  0  0  0  0  0
   -2.2286    9.1472  -19.3275 C   0  0  0  0  0  0  0  0  0  0  0  0
   -1.2210    9.5186  -20.2125 C   0  0  0  0  0  0  0  0  0  0  0  0
   -0.3895    8.5474  -20.7672 C   0  0  0  0  0  0  0  0  0  0  0  0
   -0.5741    7.2009  -20.4501 C   0  0  0  0  0  0  0  0  0  0  0  0
   -6.4151    5.1355  -16.4398 C   0  0  0  0  0  0  0  0  0  0  0  0
   -8.2904    3.7292  -11.0926 C   0  0  0  0  0  0  0  0  0  0  0  0
   -8.3261    3.8983   -9.7156 C   0  0  0  0  0  0  0  0  0  0  0  0
  1  2  1  0
  2  3  1  0
  3  4  1  0
  4  5  1  0
  5  6  1  0
  6  7  1  0
  7  8  1  0
  8  9  2  0
  9 10  1  0
 10 11  2  0
 11 12  1  0
 12 13  1  0
 13 14  2  0
 13 15  1  0
 15 16  2  0
 16 17  1  0
 17 18  1  0
 17 19  2  0
 19 20  1  0
 20 21  1  0
 21 22  1  0
 22 23  2  0
 22 24  1  0
 24 25  1  0
 25 26  1  0
 26 27  2  0
 27 28  1  0
 28 29  2  0
 29 30  1  0
 30 31  2  0
 20 32  2  0
 11 33  1  0
 33 34  2  0
 34  5  1  0
 34  8  1  0
 32 15  1  0
 31 26  1  0
M  END
>  <name>  (1196) 
P140027

>  <alias>  (1196) 
None

>  <smina_score_min>  (1196) 
-6.457

>  <exports>  (1196) 
['/opt/xchem-fragalysis-2/maxwin/BulkDock/OUTPUTS/openbind_xx01zvns2b_c2_elabs_1LOUTNY.sdf', '/opt/xchem-fragalysis-2/maxwin/BulkDock/OUTPUTS/openbind_xx01zvns2b_c2_elabs_1LSYIIV.sdf']

>  <tags>  (1196) 
syndirella_placed,openbind_xx01zvns2b_c2_elabs,openbind_xx01zvns2b_c2_elabs_scored_6.2plus,syndirella_product,openbind_xx01zvns2b_c2_elabs_scored,openbind_xx01zvns2b_c2_elabs_scored_top80percent,BulkDock Fragalysis export

>  <subsites>  (1196) 
1 - Z4590/B/203/1

>  <smiles>  (1196) 
CCCCN1CCc2ccc(NC(=O)c3cc(Cl)cc(NC(=O)OCc4ccccc4)c3)cc21

>  <HIPPO Pose ID>  (1196) 
140027

>  <energy_score>  (1196) 
-34.393323

>  <inchikey>  (1196) 
QFWRUFFMRMABFB-UHFFFAOYSA-N

>  <gnina_score_min>  (1196) 
6.236

>  <gnina_score>  (1196) 
6.196

>  <ref_mols>  (1196) 
Z3024a

>  <HIPPO Compound ID>  (1196) 
198800

>  <distance_score>  (1196) 
0.8336

>  <rmsd(smina/fragmenstein)>  (1196) 
1.127

>  <ref_pdb>  (1196) 
Z3024a

>  <inspiration_score>  (1196) 
None

$$$$
P140058
     RDKit          3D

 35 38  0  0  0  0  0  0  0  0999 V2000
   -3.6435    2.7474   -9.6337 C   0  0  0  0  0  0  0  0  0  0  0  0
   -5.0213    2.5507   -9.3175 N   0  0  0  0  0  0  0  0  0  0  0  0
   -5.9188    1.2927   -9.4614 C   0  0  0  0  0  0  0  0  0  0  0  0
   -5.6880    0.2474   -9.9324 O   0  0  0  0  0  0  0  0  0  0  0  0
   -7.3160    1.6635   -8.8241 C   0  0  0  0  0  0  0  0  0  0  0  0
   -7.4471    3.0919   -8.5325 N   0  0  0  0  0  0  0  0  0  0  0  0
   -8.2311    3.5429   -7.3838 C   0  0  0  0  0  0  0  0  0  0  0  0
   -8.3345    5.0714   -7.5574 C   0  0  0  0  0  0  0  0  0  0  0  0
   -8.2568    5.1777   -9.0484 C   0  0  0  0  0  0  0  0  0  0  0  0
   -8.4577    6.2709   -9.8645 C   0  0  0  0  0  0  0  0  0  0  0  0
   -8.2699    6.1079  -11.2401 C   0  0  0  0  0  0  0  0  0  0  0  0
   -7.9208    4.8599  -11.7801 C   0  0  0  0  0  0  0  0  0  0  0  0
   -7.7311    4.7023  -13.1495 N   0  0  0  0  0  0  0  0  0  0  0  0
   -7.6588    5.7473  -14.2747 C   0  0  0  0  0  0  0  0  0  0  0  0
   -7.6696    6.9115  -14.2265 O   0  0  0  0  0  0  0  0  0  0  0  0
   -7.5832    5.1130  -15.6015 C   0  0  0  0  0  0  0  0  0  0  0  0
   -8.7555    4.6535  -16.1910 C   0  0  0  0  0  0  0  0  0  0  0  0
   -8.7554    4.3478  -17.5461 C   0  0  0  0  0  0  0  0  0  0  0  0
  -10.2310    3.9453  -18.3158 Cl  0  0  0  0  0  0  0  0  0  0  0  0
   -7.5875    4.4421  -18.2962 C   0  0  0  0  0  0  0  0  0  0  0  0
   -6.4017    4.8285  -17.6729 C   0  0  0  0  0  0  0  0  0  0  0  0
   -5.2375    4.8803  -18.4232 N   0  0  0  0  0  0  0  0  0  0  0  0
   -3.7833    5.0243  -17.9879 C   0  0  0  0  0  0  0  0  0  0  0  0
   -3.3259    5.2000  -16.9350 O   0  0  0  0  0  0  0  0  0  0  0  0
   -3.0706    4.9725  -19.1420 O   0  0  0  0  0  0  0  0  0  0  0  0
   -1.6954    5.3630  -19.0318 C   0  0  0  0  0  0  0  0  0  0  0  0
   -1.5469    6.7980  -19.4782 C   0  0  0  0  0  0  0  0  0  0  0  0
   -2.3383    7.8200  -18.9278 C   0  0  0  0  0  0  0  0  0  0  0  0
   -2.1967    9.1405  -19.3528 C   0  0  0  0  0  0  0  0  0  0  0  0
   -1.2465    9.4598  -20.3178 C   0  0  0  0  0  0  0  0  0  0  0  0
   -0.4361    8.4603  -20.8535 C   0  0  0  0  0  0  0  0  0  0  0  0
   -0.5835    7.1365  -20.4360 C   0  0  0  0  0  0  0  0  0  0  0  0
   -6.3979    5.1873  -16.3264 C   0  0  0  0  0  0  0  0  0  0  0  0
   -7.7160    3.7670  -10.9421 C   0  0  0  0  0  0  0  0  0  0  0  0
   -7.8356    3.9559   -9.5719 C   0  0  0  0  0  0  0  0  0  0  0  0
  1  2  1  0
  2  3  1  0
  3  4  2  0
  3  5  1  0
  5  6  1  0
  6  7  1  0
  7  8  1  0
  8  9  1  0
  9 10  2  0
 10 11  1  0
 11 12  2  0
 12 13  1  0
 13 14  1  0
 14 15  2  0
 14 16  1  0
 16 17  2  0
 17 18  1  0
 18 19  1  0
 18 20  2  0
 20 21  1  0
 21 22  1  0
 22 23  1  0
 23 24  2  0
 23 25  1  0
 25 26  1  0
 26 27  1  0
 27 28  2  0
 28 29  1  0
 29 30  2  0
 30 31  1  0
 31 32  2  0
 21 33  2  0
 12 34  1  0
 34 35  2  0
 35  6  1  0
 35  9  1  0
 33 16  1  0
 32 27  1  0
M  END
>  <name>  (1197) 
P140058

>  <alias>  (1197) 
None

>  <smina_score_min>  (1197) 
-7.026

>  <exports>  (1197) 
['/opt/xchem-fragalysis-2/maxwin/BulkDock/OUTPUTS/openbind_xx01zvns2b_c2_elabs_1LOUTNY.sdf', '/opt/xchem-fragalysis-2/maxwin/BulkDock/OUTPUTS/openbind_xx01zvns2b_c2_elabs_1LSYIIV.sdf']

>  <tags>  (1197) 
syndirella_placed,openbind_xx01zvns2b_c2_elabs,openbind_xx01zvns2b_c2_elabs_scored_6.2plus,syndirella_product,openbind_xx01zvns2b_c2_elabs_scored,openbind_xx01zvns2b_c2_elabs_scored_top80percent,BulkDock Fragalysis export

>  <subsites>  (1197) 
1 - Z4590/B/203/1

>  <smiles>  (1197) 
CNC(=O)CN1CCc2ccc(NC(=O)c3cc(Cl)cc(NC(=O)OCc4ccccc4)c3)cc21

>  <HIPPO Pose ID>  (1197) 
140058

>  <energy_score>  (1197) 
-19.861679

>  <inchikey>  (1197) 
LUIPHFDESOMUFI-UHFFFAOYSA-N

>  <gnina_score_min>  (1197) 
6.24

>  <gnina_score>  (1197) 
6.197

>  <ref_mols>  (1197) 
Z3024a

>  <HIPPO Compound ID>  (1197) 
198839

>  <distance_score>  (1197) 
0.884309

>  <rmsd(smina/fragmenstein)>  (1197) 
1.451

>  <ref_pdb>  (1197) 
Z3024a

>  <inspiration_score>  (1197) 
None

$$$$
P140064
     RDKit          3D

 35 38  0  0  0  0  0  0  0  0999 V2000
   -3.4450    4.9064  -17.6092 O   0  0  0  0  0  0  0  0  0  0  0  0
   -3.9972    4.8719  -18.6305 C   0  0  0  0  0  0  0  0  0  0  0  0
   -5.4847    4.7401  -18.9480 N   0  0  0  0  0  0  0  0  0  0  0  0
   -6.5863    4.7177  -18.1080 C   0  0  0  0  0  0  0  0  0  0  0  0
   -7.8320    4.3745  -18.6316 C   0  0  0  0  0  0  0  0  0  0  0  0
   -8.9424    4.3363  -17.7958 C   0  0  0  0  0  0  0  0  0  0  0  0
  -10.4991    4.0371  -18.4252 Cl  0  0  0  0  0  0  0  0  0  0  0  0
   -8.8255    4.6239  -16.4481 C   0  0  0  0  0  0  0  0  0  0  0  0
   -7.5909    5.0164  -15.9525 C   0  0  0  0  0  0  0  0  0  0  0  0
   -7.5222    5.5502  -14.5880 C   0  0  0  0  0  0  0  0  0  0  0  0
   -7.2049    6.6617  -14.4342 O   0  0  0  0  0  0  0  0  0  0  0  0
   -7.9677    4.4880  -13.5654 N   0  0  0  0  0  0  0  0  0  0  0  0
   -8.0235    4.5382  -12.1849 C   0  0  0  0  0  0  0  0  0  0  0  0
   -7.7391    5.7206  -11.5064 C   0  0  0  0  0  0  0  0  0  0  0  0
   -7.5986    5.7101  -10.1257 C   0  0  0  0  0  0  0  0  0  0  0  0
   -7.7202    4.5083   -9.4292 C   0  0  0  0  0  0  0  0  0  0  0  0
   -7.3117    4.4421   -7.9891 C   0  0  0  0  0  0  0  0  0  0  0  0
   -8.4860    4.4519   -7.0239 C   0  0  0  0  0  0  0  0  0  0  0  0
   -8.2350    3.4929   -5.9543 N   0  0  0  0  0  0  0  0  0  0  0  0
   -8.6070    2.1381   -6.4069 C   0  0  0  0  0  0  0  0  0  0  0  0
  -10.0999    1.8438   -6.5657 C   0  0  0  0  0  0  0  0  0  0  0  0
  -11.1677    2.3325   -5.1743 S   0  0  0  0  0  0  0  0  0  0  0  0
  -10.4004    3.9060   -4.7313 C   0  0  0  0  0  0  0  0  0  0  0  0
   -8.8807    3.8464   -4.6937 C   0  0  0  0  0  0  0  0  0  0  0  0
   -8.1151    3.3454  -10.1048 C   0  0  0  0  0  0  0  0  0  0  0  0
   -8.2748    3.3632  -11.4847 C   0  0  0  0  0  0  0  0  0  0  0  0
   -6.4624    5.0555  -16.7641 C   0  0  0  0  0  0  0  0  0  0  0  0
   -3.3867    4.9777  -19.8406 O   0  0  0  0  0  0  0  0  0  0  0  0
   -1.9809    5.2630  -19.7889 C   0  0  0  0  0  0  0  0  0  0  0  0
   -1.7082    6.7501  -19.8627 C   0  0  0  0  0  0  0  0  0  0  0  0
   -0.4822    7.1850  -20.3855 C   0  0  0  0  0  0  0  0  0  0  0  0
   -0.1879    8.5466  -20.4713 C   0  0  0  0  0  0  0  0  0  0  0  0
   -1.1079    9.4915  -20.0222 C   0  0  0  0  0  0  0  0  0  0  0  0
   -2.3178    9.0761  -19.4756 C   0  0  0  0  0  0  0  0  0  0  0  0
   -2.6131    7.7151  -19.3908 C   0  0  0  0  0  0  0  0  0  0  0  0
  1  2  2  0
  2  3  1  0
  3  4  1  0
  4  5  2  0
  5  6  1  0
  6  7  1  0
  6  8  2  0
  8  9  1  0
  9 10  1  0
 10 11  2  0
 10 12  1  0
 12 13  1  0
 13 14  2  0
 14 15  1  0
 15 16  2  0
 16 17  1  0
 17 18  1  0
 18 19  1  0
 19 20  1  0
 20 21  1  0
 21 22  1  0
 22 23  1  0
 23 24  1  0
 16 25  1  0
 25 26  2  0
  9 27  2  0
  2 28  1  0
 28 29  1  0
 29 30  1  0
 30 31  2  0
 31 32  1  0
 32 33  2  0
 33 34  1  0
 34 35  2  0
 27  4  1  0
 35 30  1  0
 26 13  1  0
 24 19  1  0
M  END
>  <name>  (1198) 
P140064

>  <alias>  (1198) 
None

>  <smina_score_min>  (1198) 
-7.304

>  <exports>  (1198) 
['/opt/xchem-fragalysis-2/maxwin/BulkDock/OUTPUTS/openbind_xx01zvns2b_c2_elabs_1LOUTNY.sdf', '/opt/xchem-fragalysis-2/maxwin/BulkDock/OUTPUTS/openbind_xx01zvns2b_c2_elabs_1LSYIIV.sdf']

>  <tags>  (1198) 
syndirella_placed,openbind_xx01zvns2b_c2_elabs,openbind_xx01zvns2b_c2_elabs_scored_6.2plus,syndirella_product,openbind_xx01zvns2b_c2_elabs_scored,openbind_xx01zvns2b_c2_elabs_scored_top80percent,BulkDock Fragalysis export

>  <subsites>  (1198) 
1 - Z4590/B/203/1

>  <smiles>  (1198) 
O=C(Nc1cc(Cl)cc(C(=O)Nc2ccc(CCN3CCSCC3)cc2)c1)OCc1ccccc1

>  <HIPPO Pose ID>  (1198) 
140064

>  <energy_score>  (1198) 
-30.307293

>  <inchikey>  (1198) 
KYJDDCBSYIAOTB-UHFFFAOYSA-N

>  <gnina_score_min>  (1198) 
6.332

>  <gnina_score>  (1198) 
6.123

>  <ref_mols>  (1198) 
Z3024a

>  <HIPPO Compound ID>  (1198) 
198845

>  <distance_score>  (1198) 
0.692565

>  <rmsd(smina/fragmenstein)>  (1198) 
1.578

>  <ref_pdb>  (1198) 
Z3024a

>  <inspiration_score>  (1198) 
None

$$$$
P140088
     RDKit          3D

 36 39  0  0  0  0  0  0  0  0999 V2000
   -8.7747    5.8578   -2.5934 C   0  0  0  0  0  0  0  0  0  0  0  0
   -8.3110    6.0571   -3.9665 N   0  0  0  0  0  0  0  0  0  0  0  0
   -9.4404    6.0455   -4.9155 C   0  0  0  0  0  0  0  0  0  0  0  0
  -10.0664    4.6547   -5.1956 C   0  0  0  0  0  0  0  0  0  0  0  0
   -9.1357    3.5564   -5.4555 N   0  0  0  0  0  0  0  0  0  0  0  0
   -8.8818    3.2452   -6.8680 C   0  0  0  0  0  0  0  0  0  0  0  0
   -8.0302    4.2668   -7.6320 C   0  0  0  0  0  0  0  0  0  0  0  0
   -8.1008    4.2410   -9.1392 C   0  0  0  0  0  0  0  0  0  0  0  0
   -7.8756    5.4417   -9.8309 C   0  0  0  0  0  0  0  0  0  0  0  0
   -7.8490    5.4741  -11.2238 C   0  0  0  0  0  0  0  0  0  0  0  0
   -8.0450    4.3045  -11.9487 C   0  0  0  0  0  0  0  0  0  0  0  0
   -7.9814    4.3081  -13.3375 N   0  0  0  0  0  0  0  0  0  0  0  0
   -7.5066    5.4032  -14.3168 C   0  0  0  0  0  0  0  0  0  0  0  0
   -7.1668    6.5018  -14.1166 O   0  0  0  0  0  0  0  0  0  0  0  0
   -7.5635    4.9354  -15.7142 C   0  0  0  0  0  0  0  0  0  0  0  0
   -8.7878    4.5647  -16.2590 C   0  0  0  0  0  0  0  0  0  0  0  0
   -8.8783    4.3408  -17.6258 C   0  0  0  0  0  0  0  0  0  0  0  0
  -10.4096    4.0308  -18.3231 Cl  0  0  0  0  0  0  0  0  0  0  0  0
   -7.7531    4.4302  -18.4377 C   0  0  0  0  0  0  0  0  0  0  0  0
   -6.5192    4.7447  -17.8716 C   0  0  0  0  0  0  0  0  0  0  0  0
   -5.4017    4.7767  -18.6904 N   0  0  0  0  0  0  0  0  0  0  0  0
   -3.9223    4.9126  -18.3442 C   0  0  0  0  0  0  0  0  0  0  0  0
   -3.3898    4.9432  -17.3127 O   0  0  0  0  0  0  0  0  0  0  0  0
   -3.2922    5.0108  -19.5433 O   0  0  0  0  0  0  0  0  0  0  0  0
   -1.8896    5.3058  -19.4788 C   0  0  0  0  0  0  0  0  0  0  0  0
   -1.6543    6.7830  -19.6956 C   0  0  0  0  0  0  0  0  0  0  0  0
   -0.5512    7.1987  -20.4527 C   0  0  0  0  0  0  0  0  0  0  0  0
   -0.3097    8.5563  -20.6685 C   0  0  0  0  0  0  0  0  0  0  0  0
   -1.1604    9.5148  -20.1215 C   0  0  0  0  0  0  0  0  0  0  0  0
   -2.2442    9.1185  -19.3441 C   0  0  0  0  0  0  0  0  0  0  0  0
   -2.4833    7.7621  -19.1238 C   0  0  0  0  0  0  0  0  0  0  0  0
   -6.4228    5.0208  -16.5097 C   0  0  0  0  0  0  0  0  0  0  0  0
   -8.2874    3.1091  -11.2752 C   0  0  0  0  0  0  0  0  0  0  0  0
   -8.3035    3.0723   -9.8767 C   0  0  0  0  0  0  0  0  0  0  0  0
   -7.9581    3.6093   -4.5913 C   0  0  0  0  0  0  0  0  0  0  0  0
   -7.3477    5.0120   -4.3677 C   0  0  0  0  0  0  0  0  0  0  0  0
  1  2  1  0
  2  3  1  0
  3  4  1  0
  4  5  1  0
  5  6  1  0
  6  7  1  0
  7  8  1  0
  8  9  2  0
  9 10  1  0
 10 11  2  0
 11 12  1  0
 12 13  1  0
 13 14  2  0
 13 15  1  0
 15 16  2  0
 16 17  1  0
 17 18  1  0
 17 19  2  0
 19 20  1  0
 20 21  1  0
 21 22  1  0
 22 23  2  0
 22 24  1  0
 24 25  1  0
 25 26  1  0
 26 27  2  0
 27 28  1  0
 28 29  2  0
 29 30  1  0
 30 31  2  0
 20 32  2  0
 11 33  1  0
 33 34  2  0
  5 35  1  0
 35 36  1  0
 36  2  1  0
 34  8  1  0
 32 15  1  0
 31 26  1  0
M  END
>  <name>  (1199) 
P140088

>  <alias>  (1199) 
None

>  <smina_score_min>  (1199) 
-7.718

>  <exports>  (1199) 
['/opt/xchem-fragalysis-2/maxwin/BulkDock/OUTPUTS/openbind_xx01zvns2b_c2_elabs_1LOUTNY.sdf', '/opt/xchem-fragalysis-2/maxwin/BulkDock/OUTPUTS/openbind_xx01zvns2b_c2_elabs_1LSYIIV.sdf']

>  <tags>  (1199) 
syndirella_placed,openbind_xx01zvns2b_c2_elabs,openbind_xx01zvns2b_c2_elabs_scored_6.2plus,syndirella_product,openbind_xx01zvns2b_c2_elabs_scored,openbind_xx01zvns2b_c2_elabs_scored_top80percent,BulkDock Fragalysis export

>  <subsites>  (1199) 
1 - Z4590/B/203/1

>  <smiles>  (1199) 
CN1CCN(CCc2ccc(NC(=O)c3cc(Cl)cc(NC(=O)OCc4ccccc4)c3)cc2)CC1

>  <HIPPO Pose ID>  (1199) 
140088

>  <energy_score>  (1199) 
-55.679392

>  <inchikey>  (1199) 
GVKXTFJBFGEAKR-UHFFFAOYSA-N

>  <gnina_score_min>  (1199) 
6.204

>  <gnina_score>  (1199) 
6.064

>  <ref_mols>  (1199) 
Z3024a

>  <HIPPO Compound ID>  (1199) 
198862

>  <distance_score>  (1199) 
0.474747

>  <rmsd(smina/fragmenstein)>  (1199) 
1.064

>  <ref_pdb>  (1199) 
Z3024a

>  <inspiration_score>  (1199) 
None

$$$$
P140095
     RDKit          3D

 37 40  0  0  0  0  0  0  0  0999 V2000
   -5.8214    5.8270   -7.4956 C   0  0  0  0  0  0  0  0  0  0  0  0
   -6.4681    4.4718   -7.2093 C   0  0  0  0  0  0  0  0  0  0  0  0
   -8.0120    4.3478   -7.4546 C   0  0  2  0  0  0  0  0  0  0  0  0
   -8.1973    4.3427   -8.9928 C   0  0  0  0  0  0  0  0  0  0  0  0
   -8.2668    5.5405   -9.7252 C   0  0  0  0  0  0  0  0  0  0  0  0
   -8.1712    5.5487  -11.1233 C   0  0  0  0  0  0  0  0  0  0  0  0
   -8.0429    4.3576  -11.8297 C   0  0  0  0  0  0  0  0  0  0  0  0
   -7.8398    4.3442  -13.2063 N   0  0  0  0  0  0  0  0  0  0  0  0
   -7.7242    5.5057  -14.2126 C   0  0  0  0  0  0  0  0  0  0  0  0
   -7.7040    6.6588  -14.0377 O   0  0  0  0  0  0  0  0  0  0  0  0
   -7.6476    5.0059  -15.5956 C   0  0  0  0  0  0  0  0  0  0  0  0
   -8.8188    4.5946  -16.2175 C   0  0  0  0  0  0  0  0  0  0  0  0
   -8.8104    4.3487  -17.5826 C   0  0  0  0  0  0  0  0  0  0  0  0
  -10.2849    3.9917  -18.3725 Cl  0  0  0  0  0  0  0  0  0  0  0  0
   -7.6329    4.4497  -18.3146 C   0  0  0  0  0  0  0  0  0  0  0  0
   -6.4462    4.7891  -17.6640 C   0  0  0  0  0  0  0  0  0  0  0  0
   -5.2724    4.8011  -18.4015 N   0  0  0  0  0  0  0  0  0  0  0  0
   -3.8273    5.0075  -17.9613 C   0  0  0  0  0  0  0  0  0  0  0  0
   -3.3729    5.1254  -16.8993 O   0  0  0  0  0  0  0  0  0  0  0  0
   -3.1152    5.0269  -19.1166 O   0  0  0  0  0  0  0  0  0  0  0  0
   -1.7353    5.3945  -18.9894 C   0  0  0  0  0  0  0  0  0  0  0  0
   -1.5721    6.8255  -19.4390 C   0  0  0  0  0  0  0  0  0  0  0  0
   -0.6011    7.1563  -20.3915 C   0  0  0  0  0  0  0  0  0  0  0  0
   -0.4466    8.4781  -20.8120 C   0  0  0  0  0  0  0  0  0  0  0  0
   -1.2573    9.4818  -20.2841 C   0  0  0  0  0  0  0  0  0  0  0  0
   -2.2153    9.1688  -19.3241 C   0  0  0  0  0  0  0  0  0  0  0  0
   -2.3646    7.8503  -18.8963 C   0  0  0  0  0  0  0  0  0  0  0  0
   -6.4524    5.0964  -16.3041 C   0  0  0  0  0  0  0  0  0  0  0  0
   -8.0500    3.1545  -11.1378 C   0  0  0  0  0  0  0  0  0  0  0  0
   -8.0986    3.1506   -9.7382 C   0  0  0  0  0  0  0  0  0  0  0  0
   -8.7887    5.4720   -6.7184 C   0  0  0  0  0  0  0  0  0  0  0  0
   -8.5072    5.4843   -5.2160 C   0  0  0  0  0  0  0  0  0  0  0  0
   -8.6162    4.1185   -4.5759 C   0  0  0  0  0  0  0  0  0  0  0  0
   -8.8622    3.9956   -3.3771 O   0  0  0  0  0  0  0  0  0  0  0  0
   -8.3853    3.0363   -5.3799 N   0  0  0  0  0  0  0  0  0  0  0  0
   -8.5665    3.0704   -6.7455 C   0  0  0  0  0  0  0  0  0  0  0  0
   -9.2464    2.1947   -7.2734 O   0  0  0  0  0  0  0  0  0  0  0  0
  1  2  1  0
  3  2  1  6
  3  4  1  0
  4  5  2  0
  5  6  1  0
  6  7  2  0
  7  8  1  0
  8  9  1  0
  9 10  2  0
  9 11  1  0
 11 12  2  0
 12 13  1  0
 13 14  1  0
 13 15  2  0
 15 16  1  0
 16 17  1  0
 17 18  1  0
 18 19  2  0
 18 20  1  0
 20 21  1  0
 21 22  1  0
 22 23  2  0
 23 24  1  0
 24 25  2  0
 25 26  1  0
 26 27  2  0
 16 28  2  0
  7 29  1  0
 29 30  2  0
  3 31  1  0
 31 32  1  0
 32 33  1  0
 33 34  2  0
 33 35  1  0
 35 36  1  0
 36 37  2  0
 36  3  1  0
 30  4  1  0
 28 11  1  0
 27 22  1  0
M  END
>  <name>  (1200) 
P140095

>  <alias>  (1200) 
None

>  <smina_score_min>  (1200) 
-8.116

>  <exports>  (1200) 
['/opt/xchem-fragalysis-2/maxwin/BulkDock/OUTPUTS/openbind_xx01zvns2b_c2_elabs_1LOUTNY.sdf', '/opt/xchem-fragalysis-2/maxwin/BulkDock/OUTPUTS/openbind_xx01zvns2b_c2_elabs_1LSYIIV.sdf']

>  <tags>  (1200) 
syndirella_placed,openbind_xx01zvns2b_c2_elabs,openbind_xx01zvns2b_c2_elabs_scored_6.2plus,syndirella_product,openbind_xx01zvns2b_c2_elabs_scored,openbind_xx01zvns2b_c2_elabs_scored_top80percent,BulkDock Fragalysis export

>  <subsites>  (1200) 
1 - Z4590/B/203/1

>  <smiles>  (1200) 
CC[C@]1(c2ccc(NC(=O)c3cc(Cl)cc(NC(=O)OCc4ccccc4)c3)cc2)CCC(=O)NC1=O

>  <HIPPO Pose ID>  (1200) 
140095

>  <energy_score>  (1200) 
-68.489937

>  <inchikey>  (1200) 
WOUKPGRXWNANMF-MUUNZHRXSA-N

>  <gnina_score_min>  (1200) 
6.23

>  <gnina_score>  (1200) 
6.076

>  <ref_mols>  (1200) 
Z3024a

>  <HIPPO Compound ID>  (1200) 
198871

>  <distance_score>  (1200) 
0.473892

>  <rmsd(smina/fragmenstein)>  (1200) 
1.33

>  <ref_pdb>  (1200) 
Z3024a

>  <inspiration_score>  (1200) 
None

$$$$
P140100
     RDKit          3D

 37 39  0  0  0  0  0  0  0  0999 V2000
   -7.0582    1.6615   -9.2873 C   0  0  0  0  0  0  0  0  0  0  0  0
   -8.3955    2.1668   -9.3772 O   0  0  0  0  0  0  0  0  0  0  0  0
   -8.3407    3.4107   -9.9258 C   0  0  0  0  0  0  0  0  0  0  0  0
   -8.2949    3.4890  -11.3202 C   0  0  0  0  0  0  0  0  0  0  0  0
   -8.0437    4.7024  -11.9584 C   0  0  0  0  0  0  0  0  0  0  0  0
   -7.8849    4.6067  -13.3468 N   0  0  0  0  0  0  0  0  0  0  0  0
   -7.4608    5.6686  -14.3830 C   0  0  0  0  0  0  0  0  0  0  0  0
   -7.1028    6.7690  -14.2353 O   0  0  0  0  0  0  0  0  0  0  0  0
   -7.5272    5.1165  -15.7511 C   0  0  0  0  0  0  0  0  0  0  0  0
   -8.7488    4.6920  -16.2647 C   0  0  0  0  0  0  0  0  0  0  0  0
   -8.8409    4.3791  -17.6151 C   0  0  0  0  0  0  0  0  0  0  0  0
  -10.3697    4.0089  -18.2905 Cl  0  0  0  0  0  0  0  0  0  0  0  0
   -7.7198    4.4335  -18.4363 C   0  0  0  0  0  0  0  0  0  0  0  0
   -6.4870    4.7895  -17.8936 C   0  0  0  0  0  0  0  0  0  0  0  0
   -5.3719    4.7849  -18.7155 N   0  0  0  0  0  0  0  0  0  0  0  0
   -3.8914    4.9276  -18.3785 C   0  0  0  0  0  0  0  0  0  0  0  0
   -3.3562    4.9957  -17.3504 O   0  0  0  0  0  0  0  0  0  0  0  0
   -3.2653    4.9938  -19.5821 O   0  0  0  0  0  0  0  0  0  0  0  0
   -1.8661    5.3049  -19.5262 C   0  0  0  0  0  0  0  0  0  0  0  0
   -1.6388    6.7857  -19.7319 C   0  0  0  0  0  0  0  0  0  0  0  0
   -2.4823    7.7594  -19.1722 C   0  0  0  0  0  0  0  0  0  0  0  0
   -2.2442    9.1180  -19.3806 C   0  0  0  0  0  0  0  0  0  0  0  0
   -1.1476    9.5225  -20.1352 C   0  0  0  0  0  0  0  0  0  0  0  0
   -0.2833    8.5699  -20.6707 C   0  0  0  0  0  0  0  0  0  0  0  0
   -0.5232    7.2104  -20.4657 C   0  0  0  0  0  0  0  0  0  0  0  0
   -6.3885    5.1512  -16.5523 C   0  0  0  0  0  0  0  0  0  0  0  0
   -7.9270    5.8456  -11.1621 C   0  0  0  0  0  0  0  0  0  0  0  0
   -7.5982    7.0735  -11.6652 O   0  0  0  0  0  0  0  0  0  0  0  0
   -8.7658    7.8585  -11.8865 C   0  0  0  0  0  0  0  0  0  0  0  0
   -8.0370    5.7593   -9.7596 C   0  0  0  0  0  0  0  0  0  0  0  0
   -8.2584    4.5360   -9.1111 C   0  0  0  0  0  0  0  0  0  0  0  0
   -8.2719    4.4964   -7.5951 C   0  0  0  0  0  0  0  0  0  0  0  0
   -8.9799    3.3265   -6.8930 C   0  0  0  0  0  0  0  0  0  0  0  0
   -9.0481    3.4887   -5.4583 N   0  0  0  0  0  0  0  0  0  0  0  0
   -9.5347    4.6842   -4.6040 C   0  0  0  0  0  0  0  0  0  0  0  0
   -9.2163    4.3541   -3.1608 C   0  0  0  0  0  0  0  0  0  0  0  0
  -10.0270    5.6927   -4.9251 O   0  0  0  0  0  0  0  0  0  0  0  0
  1  2  1  0
  2  3  1  0
  3  4  2  0
  4  5  1  0
  5  6  1  0
  6  7  1  0
  7  8  2  0
  7  9  1  0
  9 10  2  0
 10 11  1  0
 11 12  1  0
 11 13  2  0
 13 14  1  0
 14 15  1  0
 15 16  1  0
 16 17  2  0
 16 18  1  0
 18 19  1  0
 19 20  1  0
 20 21  2  0
 21 22  1  0
 22 23  2  0
 23 24  1  0
 24 25  2  0
 14 26  2  0
  5 27  2  0
 27 28  1  0
 28 29  1  0
 27 30  1  0
 30 31  2  0
 31 32  1  0
 32 33  1  0
 33 34  1  0
 34 35  1  0
 35 36  1  0
 35 37  2  0
 31  3  1  0
 26  9  1  0
 25 20  1  0
M  END
>  <name>  (1201) 
P140100

>  <alias>  (1201) 
None

>  <smina_score_min>  (1201) 
-7.121

>  <exports>  (1201) 
['/opt/xchem-fragalysis-2/maxwin/BulkDock/OUTPUTS/openbind_xx01zvns2b_c2_elabs_1LOUTNY.sdf', '/opt/xchem-fragalysis-2/maxwin/BulkDock/OUTPUTS/openbind_xx01zvns2b_c2_elabs_1LSYIIV.sdf']

>  <tags>  (1201) 
syndirella_placed,openbind_xx01zvns2b_c2_elabs,openbind_xx01zvns2b_c2_elabs_scored_6.2plus,syndirella_product,openbind_xx01zvns2b_c2_elabs_scored,openbind_xx01zvns2b_c2_elabs_scored_top80percent,BulkDock Fragalysis export

>  <subsites>  (1201) 
1 - Z4590/B/203/1

>  <smiles>  (1201) 
COc1cc(NC(=O)c2cc(Cl)cc(NC(=O)OCc3ccccc3)c2)c(OC)cc1CCNC(C)=O

>  <HIPPO Pose ID>  (1201) 
140100

>  <energy_score>  (1201) 
-3.479769

>  <inchikey>  (1201) 
MBEDVGSKSZISMP-UHFFFAOYSA-N

>  <gnina_score_min>  (1201) 
6.256

>  <gnina_score>  (1201) 
6.273

>  <ref_mols>  (1201) 
Z3024a

>  <HIPPO Compound ID>  (1201) 
198874

>  <distance_score>  (1201) 
0.544251

>  <rmsd(smina/fragmenstein)>  (1201) 
1.3

>  <ref_pdb>  (1201) 
Z3024a

>  <inspiration_score>  (1201) 
None

$$$$
P140103
     RDKit          3D

 38 41  0  0  0  0  0  0  0  0999 V2000
   -6.0907    4.8236   -9.5631 C   0  0  0  0  0  0  0  0  0  0  0  0
   -7.3698    4.0050   -9.7947 C   0  0  2  0  0  0  0  0  0  0  0  0
   -8.2168    3.8318   -8.5376 C   0  0  0  0  0  0  0  0  0  0  0  0
   -8.3965    4.8724   -7.6102 C   0  0  0  0  0  0  0  0  0  0  0  0
   -9.0696    4.6510   -6.4007 C   0  0  0  0  0  0  0  0  0  0  0  0
   -9.5835    3.3793   -6.1143 C   0  0  0  0  0  0  0  0  0  0  0  0
  -10.3299    3.1555   -4.8779 N   0  0  0  0  0  0  0  0  0  0  0  0
  -10.1503    3.9629   -3.9517 O   0  0  0  0  0  0  0  0  0  0  0  0
  -11.1217    2.1979   -4.8367 O   0  0  0  0  0  0  0  0  0  0  0  0
   -9.4487    2.3409   -7.0267 C   0  0  0  0  0  0  0  0  0  0  0  0
   -8.7831    2.5775   -8.2275 C   0  0  0  0  0  0  0  0  0  0  0  0
   -6.9860    2.7129  -10.3291 N   0  0  0  0  0  0  0  0  0  0  0  0
   -7.3480    2.5551  -11.6396 C   0  0  0  0  0  0  0  0  0  0  0  0
   -6.9967    1.6224  -12.3481 O   0  0  0  0  0  0  0  0  0  0  0  0
   -8.0934    3.6425  -12.0134 N   0  0  0  0  0  0  0  0  0  0  0  0
   -8.1402    3.9362  -13.3409 N   0  0  0  0  0  0  0  0  0  0  0  0
   -7.3806    4.9971  -14.1573 C   0  0  0  0  0  0  0  0  0  0  0  0
   -6.6523    5.8383  -13.8109 O   0  0  0  0  0  0  0  0  0  0  0  0
   -7.5731    4.8053  -15.6214 C   0  0  0  0  0  0  0  0  0  0  0  0
   -8.8126    4.5073  -16.1804 C   0  0  0  0  0  0  0  0  0  0  0  0
   -8.9268    4.3726  -17.5615 C   0  0  0  0  0  0  0  0  0  0  0  0
  -10.4631    4.0858  -18.2630 Cl  0  0  0  0  0  0  0  0  0  0  0  0
   -7.8171    4.5090  -18.3870 C   0  0  0  0  0  0  0  0  0  0  0  0
   -6.5752    4.7857  -17.8261 C   0  0  0  0  0  0  0  0  0  0  0  0
   -5.4731    4.8931  -18.6611 N   0  0  0  0  0  0  0  0  0  0  0  0
   -3.9822    4.9325  -18.3360 C   0  0  0  0  0  0  0  0  0  0  0  0
   -3.4349    4.9586  -17.3121 O   0  0  0  0  0  0  0  0  0  0  0  0
   -3.3635    4.9986  -19.5441 O   0  0  0  0  0  0  0  0  0  0  0  0
   -1.9535    5.2636  -19.4975 C   0  0  0  0  0  0  0  0  0  0  0  0
   -1.6847    6.7367  -19.7118 C   0  0  0  0  0  0  0  0  0  0  0  0
   -2.5060    7.7355  -19.1628 C   0  0  0  0  0  0  0  0  0  0  0  0
   -2.2330    9.0863  -19.3795 C   0  0  0  0  0  0  0  0  0  0  0  0
   -1.1229    9.4579  -20.1312 C   0  0  0  0  0  0  0  0  0  0  0  0
   -0.2799    8.4800  -20.6554 C   0  0  0  0  0  0  0  0  0  0  0  0
   -0.5549    7.1281  -20.4424 C   0  0  0  0  0  0  0  0  0  0  0  0
   -6.4538    4.9494  -16.4480 C   0  0  0  0  0  0  0  0  0  0  0  0
   -8.1129    4.6002  -11.0180 C   0  0  0  0  0  0  0  0  0  0  0  0
   -8.5598    5.7403  -11.0879 O   0  0  0  0  0  0  0  0  0  0  0  0
  2  1  1  1
  2  3  1  0
  3  4  2  0
  4  5  1  0
  5  6  2  0
  6  7  1  0
  7  8  2  0
  7  9  1  0
  6 10  1  0
 10 11  2  0
  2 12  1  0
 12 13  1  0
 13 14  2  0
 13 15  1  0
 15 16  1  0
 16 17  1  0
 17 18  2  0
 17 19  1  0
 19 20  2  0
 20 21  1  0
 21 22  1  0
 21 23  2  0
 23 24  1  0
 24 25  1  0
 25 26  1  0
 26 27  2  0
 26 28  1  0
 28 29  1  0
 29 30  1  0
 30 31  2  0
 31 32  1  0
 32 33  2  0
 33 34  1  0
 34 35  2  0
 24 36  2  0
 15 37  1  0
 37 38  2  0
 37  2  1  0
 11  3  1  0
 36 19  1  0
 35 30  1  0
M  CHG  2   7   1   9  -1
M  END
>  <name>  (1202) 
P140103

>  <alias>  (1202) 
None

>  <smina_score_min>  (1202) 
-9.249

>  <exports>  (1202) 
['/opt/xchem-fragalysis-2/maxwin/BulkDock/OUTPUTS/openbind_xx01zvns2b_c2_elabs_1LOUTNY.sdf', '/opt/xchem-fragalysis-2/maxwin/BulkDock/OUTPUTS/openbind_xx01zvns2b_c2_elabs_1LSYIIV.sdf']

>  <tags>  (1202) 
syndirella_placed,openbind_xx01zvns2b_c2_elabs,openbind_xx01zvns2b_c2_elabs_scored_6.2plus,syndirella_product,openbind_xx01zvns2b_c2_elabs_scored,openbind_xx01zvns2b_c2_elabs_scored_top80percent,BulkDock Fragalysis export

>  <subsites>  (1202) 
1 - Z4590/B/203/1

>  <smiles>  (1202) 
C[C@]1(c2ccc([N+](=O)[O-])cc2)NC(=O)N(NC(=O)c2cc(Cl)cc(NC(=O)OCc3ccccc3)c2)C1=O

>  <HIPPO Pose ID>  (1202) 
140103

>  <energy_score>  (1202) 
-47.543725

>  <inchikey>  (1202) 
PAGLUTCJSPHNPP-RUZDIDTESA-N

>  <gnina_score_min>  (1202) 
6.435

>  <gnina_score>  (1202) 
6.409

>  <ref_mols>  (1202) 
Z3024a

>  <HIPPO Compound ID>  (1202) 
198452

>  <distance_score>  (1202) 
0.76311

>  <rmsd(smina/fragmenstein)>  (1202) 
0.954

>  <ref_pdb>  (1202) 
Z3024a

>  <inspiration_score>  (1202) 
None

$$$$
P140108
     RDKit          3D

 38 41  0  0  0  0  0  0  0  0999 V2000
   -6.5175    5.4851   -7.1093 O   0  0  0  0  0  0  0  0  0  0  0  0
   -7.2978    4.6849   -6.6822 C   0  0  0  0  0  0  0  0  0  0  0  0
   -8.2538    3.9129   -7.6118 C   0  0  0  0  0  0  0  0  0  0  0  0
   -8.0407    4.0639   -9.1025 C   0  0  0  0  0  0  0  0  0  0  0  0
   -7.9833    5.3160   -9.7272 C   0  0  0  0  0  0  0  0  0  0  0  0
   -7.8326    5.4192  -11.1162 C   0  0  0  0  0  0  0  0  0  0  0  0
   -7.7611    4.2712  -11.9032 C   0  0  0  0  0  0  0  0  0  0  0  0
   -7.6128    4.3202  -13.2884 N   0  0  0  0  0  0  0  0  0  0  0  0
   -7.4471    5.4302  -14.1767 C   0  0  0  0  0  0  0  0  0  0  0  0
   -7.3141    6.5994  -13.9543 O   0  0  0  0  0  0  0  0  0  0  0  0
   -7.4487    5.0253  -15.5964 C   0  0  0  0  0  0  0  0  0  0  0  0
   -8.6442    4.6163  -16.1819 C   0  0  0  0  0  0  0  0  0  0  0  0
   -8.6784    4.3909  -17.5517 C   0  0  0  0  0  0  0  0  0  0  0  0
  -10.1665    3.9967  -18.3047 Cl  0  0  0  0  0  0  0  0  0  0  0  0
   -7.5285    4.5296  -18.3250 C   0  0  0  0  0  0  0  0  0  0  0  0
   -6.3221    4.8893  -17.7211 C   0  0  0  0  0  0  0  0  0  0  0  0
   -5.1860    4.9546  -18.5204 N   0  0  0  0  0  0  0  0  0  0  0  0
   -3.8291    5.1704  -18.1895 C   0  0  0  0  0  0  0  0  0  0  0  0
   -3.2907    5.2757  -17.1300 O   0  0  0  0  0  0  0  0  0  0  0  0
   -3.1642    5.2078  -19.3753 O   0  0  0  0  0  0  0  0  0  0  0  0
   -1.7497    5.4439  -19.3034 C   0  0  0  0  0  0  0  0  0  0  0  0
   -1.4698    6.8768  -19.6807 C   0  0  0  0  0  0  0  0  0  0  0  0
   -1.8922    7.9284  -18.8535 C   0  0  0  0  0  0  0  0  0  0  0  0
   -1.6478    9.2549  -19.2105 C   0  0  0  0  0  0  0  0  0  0  0  0
   -0.9711    9.5442  -20.3931 C   0  0  0  0  0  0  0  0  0  0  0  0
   -0.5358    8.5078  -21.2172 C   0  0  0  0  0  0  0  0  0  0  0  0
   -0.7834    7.1802  -20.8636 C   0  0  0  0  0  0  0  0  0  0  0  0
   -6.2834    5.1597  -16.3535 C   0  0  0  0  0  0  0  0  0  0  0  0
   -7.8392    3.0213  -11.2931 C   0  0  0  0  0  0  0  0  0  0  0  0
   -7.9769    2.9187   -9.9062 C   0  0  0  0  0  0  0  0  0  0  0  0
   -7.5958    4.2933   -5.3274 N   0  0  0  0  0  0  0  0  0  0  0  0
   -6.9888    4.6693   -4.0874 C   0  0  0  0  0  0  0  0  0  0  0  0
   -7.9883    5.2485   -3.1263 C   0  0  0  0  0  0  0  0  0  0  0  0
   -8.9038    4.4210   -2.4613 C   0  0  0  0  0  0  0  0  0  0  0  0
   -9.8174    4.9618   -1.5552 C   0  0  0  0  0  0  0  0  0  0  0  0
   -9.8314    6.3338   -1.3111 C   0  0  0  0  0  0  0  0  0  0  0  0
   -8.9406    7.1687   -1.9817 C   0  0  0  0  0  0  0  0  0  0  0  0
   -8.0258    6.6297   -2.8878 C   0  0  0  0  0  0  0  0  0  0  0  0
  1  2  2  0
  2  3  1  0
  3  4  1  0
  4  5  2  0
  5  6  1  0
  6  7  2  0
  7  8  1  0
  8  9  1  0
  9 10  2  0
  9 11  1  0
 11 12  2  0
 12 13  1  0
 13 14  1  0
 13 15  2  0
 15 16  1  0
 16 17  1  0
 17 18  1  0
 18 19  2  0
 18 20  1  0
 20 21  1  0
 21 22  1  0
 22 23  2  0
 23 24  1  0
 24 25  2  0
 25 26  1  0
 26 27  2  0
 16 28  2  0
  7 29  1  0
 29 30  2  0
  2 31  1  0
 31 32  1  0
 32 33  1  0
 33 34  2  0
 34 35  1  0
 35 36  2  0
 36 37  1  0
 37 38  2  0
 30  4  1  0
 38 33  1  0
 28 11  1  0
 27 22  1  0
M  END
>  <name>  (1203) 
P140108

>  <alias>  (1203) 
None

>  <smina_score_min>  (1203) 
-7.654

>  <exports>  (1203) 
['/opt/xchem-fragalysis-2/maxwin/BulkDock/OUTPUTS/openbind_xx01zvns2b_c2_elabs_1LOUTNY.sdf', '/opt/xchem-fragalysis-2/maxwin/BulkDock/OUTPUTS/openbind_xx01zvns2b_c2_elabs_1LSYIIV.sdf']

>  <tags>  (1203) 
syndirella_placed,openbind_xx01zvns2b_c2_elabs,openbind_xx01zvns2b_c2_elabs_scored_6.2plus,syndirella_product,openbind_xx01zvns2b_c2_elabs_scored,openbind_xx01zvns2b_c2_elabs_scored_top80percent,BulkDock Fragalysis export

>  <subsites>  (1203) 
1 - Z4590/B/203/1

>  <smiles>  (1203) 
O=C(Cc1ccc(NC(=O)c2cc(Cl)cc(NC(=O)OCc3ccccc3)c2)cc1)NCc1ccccc1

>  <HIPPO Pose ID>  (1203) 
140108

>  <energy_score>  (1203) 
-42.05503

>  <inchikey>  (1203) 
HKRZCHRPSZWRTR-UHFFFAOYSA-N

>  <gnina_score_min>  (1203) 
6.207

>  <gnina_score>  (1203) 
5.918

>  <ref_mols>  (1203) 
Z3024a

>  <HIPPO Compound ID>  (1203) 
198883

>  <distance_score>  (1203) 
0.823237

>  <rmsd(smina/fragmenstein)>  (1203) 
1.148

>  <ref_pdb>  (1203) 
Z3024a

>  <inspiration_score>  (1203) 
None

$$$$
P140111
     RDKit          3D

 38 41  0  0  0  0  0  0  0  0999 V2000
   -4.5718    4.2456   -2.5711 C   0  0  0  0  0  0  0  0  0  0  0  0
   -5.9085    4.8465   -3.0368 C   0  0  0  0  0  0  0  0  0  0  0  0
   -5.6124    6.2566   -3.5759 C   0  0  0  0  0  0  0  0  0  0  0  0
   -6.8605    4.8968   -1.8328 C   0  0  0  0  0  0  0  0  0  0  0  0
   -6.3922    3.9707   -4.1037 O   0  0  0  0  0  0  0  0  0  0  0  0
   -7.5524    4.3257   -4.7523 C   0  0  0  0  0  0  0  0  0  0  0  0
   -8.2574    5.1571   -4.3543 O   0  0  0  0  0  0  0  0  0  0  0  0
   -7.6097    3.5147   -6.0416 N   0  0  0  0  0  0  0  0  0  0  0  0
   -8.5019    3.6156   -7.1787 C   0  0  1  0  0  0  0  0  0  0  0  0
   -8.4471    5.0822   -7.6399 C   0  0  0  0  0  0  0  0  0  0  0  0
   -8.3274    4.9943   -9.1155 C   0  0  0  0  0  0  0  0  0  0  0  0
   -8.2695    6.0770   -9.9688 C   0  0  0  0  0  0  0  0  0  0  0  0
   -8.0972    5.8335  -11.3227 C   0  0  0  0  0  0  0  0  0  0  0  0
   -8.0079    4.5232  -11.8189 C   0  0  0  0  0  0  0  0  0  0  0  0
   -7.8186    4.3556  -13.1911 N   0  0  0  0  0  0  0  0  0  0  0  0
   -7.5073    5.3932  -14.2969 C   0  0  0  0  0  0  0  0  0  0  0  0
   -7.2846    6.5384  -14.2207 O   0  0  0  0  0  0  0  0  0  0  0  0
   -7.5505    4.8274  -15.6543 C   0  0  0  0  0  0  0  0  0  0  0  0
   -8.7821    4.4784  -16.1969 C   0  0  0  0  0  0  0  0  0  0  0  0
   -8.8832    4.2894  -17.5698 C   0  0  0  0  0  0  0  0  0  0  0  0
  -10.4204    4.0218  -18.2753 Cl  0  0  0  0  0  0  0  0  0  0  0  0
   -7.7636    4.3934  -18.3894 C   0  0  0  0  0  0  0  0  0  0  0  0
   -6.5236    4.6872  -17.8267 C   0  0  0  0  0  0  0  0  0  0  0  0
   -5.4146    4.7463  -18.6563 N   0  0  0  0  0  0  0  0  0  0  0  0
   -3.9328    4.8890  -18.3225 C   0  0  0  0  0  0  0  0  0  0  0  0
   -3.3899    4.9037  -17.2960 O   0  0  0  0  0  0  0  0  0  0  0  0
   -3.3152    5.0088  -19.5262 O   0  0  0  0  0  0  0  0  0  0  0  0
   -1.9107    5.2977  -19.4732 C   0  0  0  0  0  0  0  0  0  0  0  0
   -1.6716    6.7744  -19.6882 C   0  0  0  0  0  0  0  0  0  0  0  0
   -2.5043    7.7544  -19.1236 C   0  0  0  0  0  0  0  0  0  0  0  0
   -2.2609    9.1105  -19.3411 C   0  0  0  0  0  0  0  0  0  0  0  0
   -1.1695    9.5054  -20.1087 C   0  0  0  0  0  0  0  0  0  0  0  0
   -0.3156    8.5458  -20.6488 C   0  0  0  0  0  0  0  0  0  0  0  0
   -0.5610    7.1885  -20.4354 C   0  0  0  0  0  0  0  0  0  0  0  0
   -6.4156    4.9270  -16.4591 C   0  0  0  0  0  0  0  0  0  0  0  0
   -8.0865    3.4292  -10.9423 C   0  0  0  0  0  0  0  0  0  0  0  0
   -8.2192    3.6839   -9.5755 C   0  0  0  0  0  0  0  0  0  0  0  0
   -8.1934    2.7211   -8.4162 C   0  0  0  0  0  0  0  0  0  0  0  0
  1  2  1  0
  2  3  1  0
  2  4  1  0
  2  5  1  0
  5  6  1  0
  6  7  2  0
  6  8  1  0
  9  8  1  1
  9 10  1  0
 10 11  1  0
 11 12  2  0
 12 13  1  0
 13 14  2  0
 14 15  1  0
 15 16  1  0
 16 17  2  0
 16 18  1  0
 18 19  2  0
 19 20  1  0
 20 21  1  0
 20 22  2  0
 22 23  1  0
 23 24  1  0
 24 25  1  0
 25 26  2  0
 25 27  1  0
 27 28  1  0
 28 29  1  0
 29 30  2  0
 30 31  1  0
 31 32  2  0
 32 33  1  0
 33 34  2  0
 23 35  2  0
 14 36  1  0
 36 37  2  0
 37 38  1  0
 38  9  1  0
 37 11  1  0
 35 18  1  0
 34 29  1  0
M  END
>  <name>  (1204) 
P140111

>  <alias>  (1204) 
None

>  <smina_score_min>  (1204) 
-7.591

>  <exports>  (1204) 
['/opt/xchem-fragalysis-2/maxwin/BulkDock/OUTPUTS/openbind_xx01zvns2b_c2_elabs_1LOUTNY.sdf', '/opt/xchem-fragalysis-2/maxwin/BulkDock/OUTPUTS/openbind_xx01zvns2b_c2_elabs_1LSYIIV.sdf']

>  <tags>  (1204) 
syndirella_placed,openbind_xx01zvns2b_c2_elabs,openbind_xx01zvns2b_c2_elabs_scored_6.2plus,syndirella_product,openbind_xx01zvns2b_c2_elabs_scored,openbind_xx01zvns2b_c2_elabs_scored_top80percent,BulkDock Fragalysis export

>  <subsites>  (1204) 
1 - Z4590/B/203/1

>  <smiles>  (1204) 
CC(C)(C)OC(=O)N[C@H]1Cc2ccc(NC(=O)c3cc(Cl)cc(NC(=O)OCc4ccccc4)c3)cc2C1

>  <HIPPO Pose ID>  (1204) 
140111

>  <energy_score>  (1204) 
-36.038101

>  <inchikey>  (1204) 
QAQKISWJHFKLGD-DEOSSOPVSA-N

>  <gnina_score_min>  (1204) 
6.265

>  <gnina_score>  (1204) 
6.209

>  <ref_mols>  (1204) 
Z3024a

>  <HIPPO Compound ID>  (1204) 
198887

>  <distance_score>  (1204) 
0.590973

>  <rmsd(smina/fragmenstein)>  (1204) 
0.938

>  <ref_pdb>  (1204) 
Z3024a

>  <inspiration_score>  (1204) 
None

$$$$
P140112
     RDKit          3D

 38 40  0  0  0  0  0  0  0  0999 V2000
   -5.5276    5.6529   -7.3739 C   0  0  0  0  0  0  0  0  0  0  0  0
   -6.1463    5.2729   -6.0817 N   0  0  0  0  0  0  0  0  0  0  0  0
   -7.0087    4.3926   -7.0077 C   0  0  0  0  0  0  0  0  0  0  0  0
   -8.2556    4.9802   -7.7312 C   0  0  0  0  0  0  0  0  0  0  0  0
   -8.1637    4.8631   -9.2379 C   0  0  0  0  0  0  0  0  0  0  0  0
   -8.2892    3.6209   -9.8767 C   0  0  0  0  0  0  0  0  0  0  0  0
   -8.1544    3.5177  -11.2670 C   0  0  0  0  0  0  0  0  0  0  0  0
   -7.8729    4.6510  -12.0299 C   0  0  0  0  0  0  0  0  0  0  0  0
   -7.7011    4.5255  -13.4074 N   0  0  0  0  0  0  0  0  0  0  0  0
   -7.2953    5.4826  -14.3963 C   0  0  0  0  0  0  0  0  0  0  0  0
   -6.9234    6.6164  -14.2841 O   0  0  0  0  0  0  0  0  0  0  0  0
   -7.4106    4.9827  -15.7832 C   0  0  0  0  0  0  0  0  0  0  0  0
   -8.6632    4.6003  -16.2609 C   0  0  0  0  0  0  0  0  0  0  0  0
   -8.8184    4.3550  -17.6183 C   0  0  0  0  0  0  0  0  0  0  0  0
  -10.3781    4.0313  -18.2476 Cl  0  0  0  0  0  0  0  0  0  0  0  0
   -7.7343    4.4435  -18.4856 C   0  0  0  0  0  0  0  0  0  0  0  0
   -6.4734    4.7887  -17.9974 C   0  0  0  0  0  0  0  0  0  0  0  0
   -5.4211    4.8388  -18.9055 N   0  0  0  0  0  0  0  0  0  0  0  0
   -4.0312    5.0123  -18.7089 C   0  0  0  0  0  0  0  0  0  0  0  0
   -3.3870    5.0833  -17.7073 O   0  0  0  0  0  0  0  0  0  0  0  0
   -3.4881    5.0438  -19.9584 O   0  0  0  0  0  0  0  0  0  0  0  0
   -2.0618    5.2105  -20.0185 C   0  0  0  0  0  0  0  0  0  0  0  0
   -1.6473    6.6652  -20.0255 C   0  0  0  0  0  0  0  0  0  0  0  0
   -0.2924    6.9817  -19.8480 C   0  0  0  0  0  0  0  0  0  0  0  0
    0.1360    8.3101  -19.8610 C   0  0  0  0  0  0  0  0  0  0  0  0
   -0.7833    9.3385  -20.0566 C   0  0  0  0  0  0  0  0  0  0  0  0
   -2.1301    9.0389  -20.2463 C   0  0  0  0  0  0  0  0  0  0  0  0
   -2.5590    7.7102  -20.2383 C   0  0  0  0  0  0  0  0  0  0  0  0
   -6.3106    5.0752  -16.6430 C   0  0  0  0  0  0  0  0  0  0  0  0
   -7.7684    5.8911  -11.4008 C   0  0  0  0  0  0  0  0  0  0  0  0
   -7.9278    5.9995  -10.0187 C   0  0  0  0  0  0  0  0  0  0  0  0
   -6.9692    6.0060   -5.2038 C   0  0  0  0  0  0  0  0  0  0  0  0
   -7.4551    7.0956   -5.3179 O   0  0  0  0  0  0  0  0  0  0  0  0
   -7.1215    5.2415   -4.0837 O   0  0  0  0  0  0  0  0  0  0  0  0
   -7.8964    5.7134   -2.9532 C   0  0  0  0  0  0  0  0  0  0  0  0
   -7.8514    4.5645   -1.9352 C   0  0  0  0  0  0  0  0  0  0  0  0
   -9.3587    5.9571   -3.3347 C   0  0  0  0  0  0  0  0  0  0  0  0
   -7.2536    6.9517   -2.3184 C   0  0  0  0  0  0  0  0  0  0  0  0
  1  2  1  0
  2  3  1  0
  3  4  1  0
  4  5  1  0
  5  6  2  0
  6  7  1  0
  7  8  2  0
  8  9  1  0
  9 10  1  0
 10 11  2  0
 10 12  1  0
 12 13  2  0
 13 14  1  0
 14 15  1  0
 14 16  2  0
 16 17  1  0
 17 18  1  0
 18 19  1  0
 19 20  2  0
 19 21  1  0
 21 22  1  0
 22 23  1  0
 23 24  2  0
 24 25  1  0
 25 26  2  0
 26 27  1  0
 27 28  2  0
 17 29  2  0
  8 30  1  0
 30 31  2  0
  2 32  1  0
 32 33  2  0
 32 34  1  0
 34 35  1  0
 35 36  1  0
 35 37  1  0
 35 38  1  0
 31  5  1  0
 29 12  1  0
 28 23  1  0
M  END
>  <name>  (1205) 
P140112

>  <alias>  (1205) 
None

>  <smina_score_min>  (1205) 
-7.392

>  <exports>  (1205) 
['/opt/xchem-fragalysis-2/maxwin/BulkDock/OUTPUTS/openbind_xx01zvns2b_c2_elabs_1LOUTNY.sdf', '/opt/xchem-fragalysis-2/maxwin/BulkDock/OUTPUTS/openbind_xx01zvns2b_c2_elabs_1LSYIIV.sdf']

>  <tags>  (1205) 
syndirella_placed,openbind_xx01zvns2b_c2_elabs,openbind_xx01zvns2b_c2_elabs_scored_6.2plus,syndirella_product,openbind_xx01zvns2b_c2_elabs_scored,openbind_xx01zvns2b_c2_elabs_scored_top80percent,BulkDock Fragalysis export

>  <subsites>  (1205) 
1 - Z4590/B/203/1

>  <smiles>  (1205) 
CN(CCc1ccc(NC(=O)c2cc(Cl)cc(NC(=O)OCc3ccccc3)c2)cc1)C(=O)OC(C)(C)C

>  <HIPPO Pose ID>  (1205) 
140112

>  <energy_score>  (1205) 
-0.295793

>  <inchikey>  (1205) 
NGAFELIXZBNWAI-UHFFFAOYSA-N

>  <gnina_score_min>  (1205) 
6.283

>  <gnina_score>  (1205) 
6.021

>  <ref_mols>  (1205) 
Z3024a

>  <HIPPO Compound ID>  (1205) 
198888

>  <distance_score>  (1205) 
1.033771

>  <rmsd(smina/fragmenstein)>  (1205) 
1.282

>  <ref_pdb>  (1205) 
Z3024a

>  <inspiration_score>  (1205) 
None

$$$$
P140113
     RDKit          3D

 38 41  0  0  0  0  0  0  0  0999 V2000
   -8.8462    3.8924   -0.9331 C   0  0  0  0  0  0  0  0  0  0  0  0
   -8.2535    4.7430   -2.0670 C   0  0  0  0  0  0  0  0  0  0  0  0
   -6.7803    5.0254   -1.7462 C   0  0  0  0  0  0  0  0  0  0  0  0
   -9.0745    6.0384   -2.1552 C   0  0  0  0  0  0  0  0  0  0  0  0
   -8.3900    3.9372   -3.2715 O   0  0  0  0  0  0  0  0  0  0  0  0
   -8.0154    4.4539   -4.4808 C   0  0  0  0  0  0  0  0  0  0  0  0
   -7.5240    5.5025   -4.5957 O   0  0  0  0  0  0  0  0  0  0  0  0
   -8.4657    3.4453   -5.5438 N   0  0  0  0  0  0  0  0  0  0  0  0
   -8.3264    3.4681   -6.9324 C   0  0  0  0  0  0  0  0  0  0  0  0
   -8.9307    2.4995   -7.7257 C   0  0  0  0  0  0  0  0  0  0  0  0
   -8.8960    2.6139   -9.1303 C   0  0  0  0  0  0  0  0  0  0  0  0
   -8.2463    3.6733   -9.7958 C   0  0  0  0  0  0  0  0  0  0  0  0
   -8.4025    3.9317  -11.3652 C   0  0  0  0  0  0  0  0  0  0  0  0
   -7.3111    3.7704  -12.4036 C   0  0  0  0  0  0  0  0  0  0  0  0
   -8.0048    4.9591  -13.2047 N   0  0  0  0  0  0  0  0  0  0  0  0
   -7.0819    5.5388  -14.2387 C   0  0  0  0  0  0  0  0  0  0  0  0
   -6.3053    6.4217  -14.1583 O   0  0  0  0  0  0  0  0  0  0  0  0
   -7.2797    4.9391  -15.5933 C   0  0  0  0  0  0  0  0  0  0  0  0
   -8.5486    4.5771  -16.0610 C   0  0  0  0  0  0  0  0  0  0  0  0
   -8.7323    4.3392  -17.4257 C   0  0  0  0  0  0  0  0  0  0  0  0
  -10.2976    4.0256  -18.0624 Cl  0  0  0  0  0  0  0  0  0  0  0  0
   -7.6683    4.4305  -18.3174 C   0  0  0  0  0  0  0  0  0  0  0  0
   -6.3987    4.7344  -17.8409 C   0  0  0  0  0  0  0  0  0  0  0  0
   -5.3499    4.8216  -18.7434 N   0  0  0  0  0  0  0  0  0  0  0  0
   -3.8422    4.8647  -18.5111 C   0  0  0  0  0  0  0  0  0  0  0  0
   -3.2333    4.9114  -17.5234 O   0  0  0  0  0  0  0  0  0  0  0  0
   -3.3042    4.9245  -19.7582 O   0  0  0  0  0  0  0  0  0  0  0  0
   -1.9055    5.2371  -19.8001 C   0  0  0  0  0  0  0  0  0  0  0  0
   -1.6591    6.7304  -19.8714 C   0  0  0  0  0  0  0  0  0  0  0  0
   -2.6245    7.6869  -19.5156 C   0  0  0  0  0  0  0  0  0  0  0  0
   -2.3451    9.0517  -19.5954 C   0  0  0  0  0  0  0  0  0  0  0  0
   -1.0950    9.4802  -20.0294 C   0  0  0  0  0  0  0  0  0  0  0  0
   -0.1210    8.5450  -20.3724 C   0  0  0  0  0  0  0  0  0  0  0  0
   -0.3981    7.1796  -20.2878 C   0  0  0  0  0  0  0  0  0  0  0  0
   -6.2032    4.9933  -16.4863 C   0  0  0  0  0  0  0  0  0  0  0  0
   -8.2864    5.3842  -11.8088 C   0  0  0  0  0  0  0  0  0  0  0  0
   -7.5726    4.5753   -8.9526 C   0  0  0  0  0  0  0  0  0  0  0  0
   -7.6251    4.4908   -7.5563 C   0  0  0  0  0  0  0  0  0  0  0  0
  1  2  1  0
  2  3  1  0
  2  4  1  0
  2  5  1  0
  5  6  1  0
  6  7  2  0
  6  8  1  0
  8  9  1  0
  9 10  2  0
 10 11  1  0
 11 12  2  0
 12 13  1  0
 13 14  1  0
 14 15  1  0
 15 16  1  0
 16 17  2  0
 16 18  1  0
 18 19  2  0
 19 20  1  0
 20 21  1  0
 20 22  2  0
 22 23  1  0
 23 24  1  0
 24 25  1  0
 25 26  2  0
 25 27  1  0
 27 28  1  0
 28 29  1  0
 29 30  2  0
 30 31  1  0
 31 32  2  0
 32 33  1  0
 33 34  2  0
 23 35  2  0
 15 36  1  0
 12 37  1  0
 37 38  2  0
 38  9  1  0
 36 13  1  0
 35 18  1  0
 34 29  1  0
M  END
>  <name>  (1206) 
P140113

>  <alias>  (1206) 
None

>  <smina_score_min>  (1206) 
-7.751

>  <exports>  (1206) 
['/opt/xchem-fragalysis-2/maxwin/BulkDock/OUTPUTS/openbind_xx01zvns2b_c2_elabs_1LOUTNY.sdf', '/opt/xchem-fragalysis-2/maxwin/BulkDock/OUTPUTS/openbind_xx01zvns2b_c2_elabs_1LSYIIV.sdf']

>  <tags>  (1206) 
syndirella_placed,openbind_xx01zvns2b_c2_elabs,openbind_xx01zvns2b_c2_elabs_scored_6.2plus,syndirella_product,openbind_xx01zvns2b_c2_elabs_scored,openbind_xx01zvns2b_c2_elabs_scored_top80percent,BulkDock Fragalysis export

>  <subsites>  (1206) 
1 - Z4590/B/203/1

>  <smiles>  (1206) 
CC(C)(C)OC(=O)Nc1ccc(C2CN(C(=O)c3cc(Cl)cc(NC(=O)OCc4ccccc4)c3)C2)cc1

>  <HIPPO Pose ID>  (1206) 
140113

>  <energy_score>  (1206) 
-29.774678

>  <inchikey>  (1206) 
LXKFUWZXAXDEDD-UHFFFAOYSA-N

>  <gnina_score_min>  (1206) 
6.22

>  <gnina_score>  (1206) 
6.069

>  <ref_mols>  (1206) 
Z3024a

>  <HIPPO Compound ID>  (1206) 
198889

>  <distance_score>  (1206) 
0.725707

>  <rmsd(smina/fragmenstein)>  (1206) 
0.934

>  <ref_pdb>  (1206) 
Z3024a

>  <inspiration_score>  (1206) 
None

$$$$
P140116
     RDKit          3D

 39 41  0  0  0  0  0  0  0  0999 V2000
   -9.7109    9.0480  -12.2642 C   0  0  0  0  0  0  0  0  0  0  0  0
   -8.5185    8.3100  -11.6339 C   0  0  0  0  0  0  0  0  0  0  0  0
   -8.5027    8.6189  -10.1319 C   0  0  0  0  0  0  0  0  0  0  0  0
   -7.2406    8.7867  -12.3357 C   0  0  0  0  0  0  0  0  0  0  0  0
   -8.7592    6.8988  -11.8833 O   0  0  0  0  0  0  0  0  0  0  0  0
   -7.8605    5.9651  -11.4374 C   0  0  0  0  0  0  0  0  0  0  0  0
   -6.8478    6.2255  -10.8016 O   0  0  0  0  0  0  0  0  0  0  0  0
   -8.2999    4.5495  -11.8740 C   0  0  2  0  0  0  0  0  0  0  0  0
   -7.5702    3.4114  -11.1594 C   0  0  0  0  0  0  0  0  0  0  0  0
   -7.9226    3.3280   -9.6874 C   0  0  0  0  0  0  0  0  0  0  0  0
   -7.1820    4.0633   -8.7542 C   0  0  0  0  0  0  0  0  0  0  0  0
   -7.5029    4.0381   -7.3992 C   0  0  0  0  0  0  0  0  0  0  0  0
   -8.5513    3.2322   -6.9574 C   0  0  0  0  0  0  0  0  0  0  0  0
   -8.8869    3.2295   -5.5344 N   0  0  0  0  0  0  0  0  0  0  0  0
   -8.0042    3.5753   -4.7289 O   0  0  0  0  0  0  0  0  0  0  0  0
  -10.0623    2.9801   -5.2255 O   0  0  0  0  0  0  0  0  0  0  0  0
   -9.3012    2.4820   -7.8649 C   0  0  0  0  0  0  0  0  0  0  0  0
   -8.9903    2.5448   -9.2291 C   0  0  0  0  0  0  0  0  0  0  0  0
   -8.1932    4.4671  -13.3249 N   0  0  0  0  0  0  0  0  0  0  0  0
   -7.1755    5.0982  -14.2886 C   0  0  0  0  0  0  0  0  0  0  0  0
   -6.3066    5.8461  -14.0851 O   0  0  0  0  0  0  0  0  0  0  0  0
   -7.4291    4.7529  -15.7206 C   0  0  0  0  0  0  0  0  0  0  0  0
   -8.7066    4.5200  -16.2307 C   0  0  0  0  0  0  0  0  0  0  0  0
   -8.8793    4.3531  -17.6039 C   0  0  0  0  0  0  0  0  0  0  0  0
  -10.4533    4.1189  -18.2434 Cl  0  0  0  0  0  0  0  0  0  0  0  0
   -7.7988    4.4224  -18.4754 C   0  0  0  0  0  0  0  0  0  0  0  0
   -6.5240    4.6471  -17.9697 C   0  0  0  0  0  0  0  0  0  0  0  0
   -5.4525    4.6939  -18.8507 N   0  0  0  0  0  0  0  0  0  0  0  0
   -3.9552    4.8368  -18.5860 C   0  0  0  0  0  0  0  0  0  0  0  0
   -3.3661    4.8619  -17.5852 O   0  0  0  0  0  0  0  0  0  0  0  0
   -3.3919    4.9881  -19.8144 O   0  0  0  0  0  0  0  0  0  0  0  0
   -1.9847    5.2724  -19.8058 C   0  0  0  0  0  0  0  0  0  0  0  0
   -1.7170    6.7604  -19.8690 C   0  0  0  0  0  0  0  0  0  0  0  0
   -2.6104    7.7164  -19.3587 C   0  0  0  0  0  0  0  0  0  0  0  0
   -2.3213    9.0792  -19.4362 C   0  0  0  0  0  0  0  0  0  0  0  0
   -1.1286    9.5046  -20.0127 C   0  0  0  0  0  0  0  0  0  0  0  0
   -0.2190    8.5679  -20.4988 C   0  0  0  0  0  0  0  0  0  0  0  0
   -0.5074    7.2047  -20.4210 C   0  0  0  0  0  0  0  0  0  0  0  0
   -6.3398    4.8128  -16.5989 C   0  0  0  0  0  0  0  0  0  0  0  0
  1  2  1  0
  2  3  1  0
  2  4  1  0
  2  5  1  0
  5  6  1  0
  6  7  2  0
  6  8  1  0
  8  9  1  1
  9 10  1  0
 10 11  2  0
 11 12  1  0
 12 13  2  0
 13 14  1  0
 14 15  2  0
 14 16  1  0
 13 17  1  0
 17 18  2  0
  8 19  1  0
 19 20  1  0
 20 21  2  0
 20 22  1  0
 22 23  2  0
 23 24  1  0
 24 25  1  0
 24 26  2  0
 26 27  1  0
 27 28  1  0
 28 29  1  0
 29 30  2  0
 29 31  1  0
 31 32  1  0
 32 33  1  0
 33 34  2  0
 34 35  1  0
 35 36  2  0
 36 37  1  0
 37 38  2  0
 27 39  2  0
 18 10  1  0
 39 22  1  0
 38 33  1  0
M  CHG  2  14   1  16  -1
M  END
>  <name>  (1207) 
P140116

>  <alias>  (1207) 
None

>  <smina_score_min>  (1207) 
-7.353

>  <exports>  (1207) 
['/opt/xchem-fragalysis-2/maxwin/BulkDock/OUTPUTS/openbind_xx01zvns2b_c2_elabs_1LOUTNY.sdf', '/opt/xchem-fragalysis-2/maxwin/BulkDock/OUTPUTS/openbind_xx01zvns2b_c2_elabs_1LSYIIV.sdf']

>  <tags>  (1207) 
syndirella_placed,openbind_xx01zvns2b_c2_elabs,openbind_xx01zvns2b_c2_elabs_scored_6.2plus,syndirella_product,openbind_xx01zvns2b_c2_elabs_scored,openbind_xx01zvns2b_c2_elabs_scored_top80percent,BulkDock Fragalysis export

>  <subsites>  (1207) 
1 - Z4590/B/203/1

>  <smiles>  (1207) 
CC(C)(C)OC(=O)[C@H](Cc1ccc([N+](=O)[O-])cc1)NC(=O)c1cc(Cl)cc(NC(=O)OCc2ccccc2)c1

>  <HIPPO Pose ID>  (1207) 
140116

>  <energy_score>  (1207) 
-23.803995

>  <inchikey>  (1207) 
YSSQCCGMVLWBMM-DEOSSOPVSA-N

>  <gnina_score_min>  (1207) 
6.457

>  <gnina_score>  (1207) 
6.385

>  <ref_mols>  (1207) 
Z3024a

>  <HIPPO Compound ID>  (1207) 
198896

>  <distance_score>  (1207) 
0.735672

>  <rmsd(smina/fragmenstein)>  (1207) 
1.815

>  <ref_pdb>  (1207) 
Z3024a

>  <inspiration_score>  (1207) 
None

$$$$
P140119
     RDKit          3D

 39 42  0  0  0  0  0  0  0  0999 V2000
   -2.4724    4.5238   -6.0040 C   0  0  0  0  0  0  0  0  0  0  0  0
   -2.9596    5.8907   -6.4962 C   0  0  0  0  0  0  0  0  0  0  0  0
   -2.3452    6.1609   -7.8782 C   0  0  0  0  0  0  0  0  0  0  0  0
   -2.5486    7.0225   -5.5483 C   0  0  0  0  0  0  0  0  0  0  0  0
   -4.3900    5.8879   -6.7257 O   0  0  0  0  0  0  0  0  0  0  0  0
   -5.2818    5.6739   -5.7181 C   0  0  0  0  0  0  0  0  0  0  0  0
   -4.9499    5.4848   -4.5813 O   0  0  0  0  0  0  0  0  0  0  0  0
   -6.5614    5.7393   -6.2990 N   0  0  0  0  0  0  0  0  0  0  0  0
   -7.9146    5.7052   -5.6802 C   0  0  0  0  0  0  0  0  0  0  0  0
   -8.9902    5.4815   -6.7166 C   0  0  0  0  0  0  0  0  0  0  0  0
   -8.3522    4.3476   -7.4607 C   0  0  1  0  0  0  0  0  0  0  0  0
   -8.2681    4.4497   -8.9676 C   0  0  0  0  0  0  0  0  0  0  0  0
   -7.9208    5.6319   -9.6325 C   0  0  0  0  0  0  0  0  0  0  0  0
   -7.8198    5.6673  -11.0294 C   0  0  0  0  0  0  0  0  0  0  0  0
   -8.0445    4.5179  -11.7858 C   0  0  0  0  0  0  0  0  0  0  0  0
   -7.9369    4.5130  -13.1774 N   0  0  0  0  0  0  0  0  0  0  0  0
   -7.4960    5.5268  -14.0902 C   0  0  0  0  0  0  0  0  0  0  0  0
   -7.1801    6.6670  -13.9024 O   0  0  0  0  0  0  0  0  0  0  0  0
   -7.4632    5.0721  -15.4996 C   0  0  0  0  0  0  0  0  0  0  0  0
   -8.6304    4.6335  -16.1210 C   0  0  0  0  0  0  0  0  0  0  0  0
   -8.6154    4.3895  -17.4901 C   0  0  0  0  0  0  0  0  0  0  0  0
  -10.0712    3.9559  -18.2863 Cl  0  0  0  0  0  0  0  0  0  0  0  0
   -7.4451    4.5413  -18.2306 C   0  0  0  0  0  0  0  0  0  0  0  0
   -6.2664    4.9301  -17.5928 C   0  0  0  0  0  0  0  0  0  0  0  0
   -5.1039    5.0113  -18.3523 N   0  0  0  0  0  0  0  0  0  0  0  0
   -3.7687    5.2880  -17.9797 C   0  0  0  0  0  0  0  0  0  0  0  0
   -3.3002    5.6017  -16.9283 O   0  0  0  0  0  0  0  0  0  0  0  0
   -3.0353    5.1587  -19.1178 O   0  0  0  0  0  0  0  0  0  0  0  0
   -1.6370    5.4625  -19.0051 C   0  0  0  0  0  0  0  0  0  0  0  0
   -1.3854    6.8328  -19.5806 C   0  0  0  0  0  0  0  0  0  0  0  0
   -1.8298    7.9803  -18.9065 C   0  0  0  0  0  0  0  0  0  0  0  0
   -1.6147    9.2487  -19.4459 C   0  0  0  0  0  0  0  0  0  0  0  0
   -0.9481    9.3838  -20.6615 C   0  0  0  0  0  0  0  0  0  0  0  0
   -0.4950    8.2513  -21.3367 C   0  0  0  0  0  0  0  0  0  0  0  0
   -0.7131    6.9811  -20.8003 C   0  0  0  0  0  0  0  0  0  0  0  0
   -6.2792    5.2170  -16.2280 C   0  0  0  0  0  0  0  0  0  0  0  0
   -8.3736    3.3311  -11.1353 C   0  0  0  0  0  0  0  0  0  0  0  0
   -8.4816    3.2966   -9.7407 C   0  0  0  0  0  0  0  0  0  0  0  0
   -6.9893    4.3700   -6.7764 C   0  0  0  0  0  0  0  0  0  0  0  0
  1  2  1  0
  2  3  1  0
  2  4  1  0
  2  5  1  0
  5  6  1  0
  6  7  2  0
  6  8  1  0
  8  9  1  0
  9 10  1  0
 10 11  1  0
 11 12  1  6
 12 13  2  0
 13 14  1  0
 14 15  2  0
 15 16  1  0
 16 17  1  0
 17 18  2  0
 17 19  1  0
 19 20  2  0
 20 21  1  0
 21 22  1  0
 21 23  2  0
 23 24  1  0
 24 25  1  0
 25 26  1  0
 26 27  2  0
 26 28  1  0
 28 29  1  0
 29 30  1  0
 30 31  2  0
 31 32  1  0
 32 33  2  0
 33 34  1  0
 34 35  2  0
 24 36  2  0
 15 37  1  0
 37 38  2  0
 11 39  1  0
 39  8  1  0
 38 12  1  0
 36 19  1  0
 35 30  1  0
M  END
>  <name>  (1208) 
P140119

>  <alias>  (1208) 
None

>  <smina_score_min>  (1208) 
-6.885

>  <exports>  (1208) 
['/opt/xchem-fragalysis-2/maxwin/BulkDock/OUTPUTS/openbind_xx01zvns2b_c2_elabs_1LOUTNY.sdf', '/opt/xchem-fragalysis-2/maxwin/BulkDock/OUTPUTS/openbind_xx01zvns2b_c2_elabs_1LSYIIV.sdf']

>  <tags>  (1208) 
syndirella_placed,openbind_xx01zvns2b_c2_elabs,openbind_xx01zvns2b_c2_elabs_scored_6.2plus,syndirella_product,openbind_xx01zvns2b_c2_elabs_scored,openbind_xx01zvns2b_c2_elabs_scored_top80percent,BulkDock Fragalysis export

>  <subsites>  (1208) 
1 - Z4590/B/203/1

>  <smiles>  (1208) 
CC(C)(C)OC(=O)N1CC[C@@H](c2ccc(NC(=O)c3cc(Cl)cc(NC(=O)OCc4ccccc4)c3)cc2)C1

>  <HIPPO Pose ID>  (1208) 
140119

>  <energy_score>  (1208) 
-20.349081

>  <inchikey>  (1208) 
KLZRWYUTEDTAHC-JOCHJYFZSA-N

>  <gnina_score_min>  (1208) 
6.228

>  <gnina_score>  (1208) 
6.142

>  <ref_mols>  (1208) 
Z3024a

>  <HIPPO Compound ID>  (1208) 
198899

>  <distance_score>  (1208) 
0.791058

>  <rmsd(smina/fragmenstein)>  (1208) 
1.463

>  <ref_pdb>  (1208) 
Z3024a

>  <inspiration_score>  (1208) 
None

$$$$
P140131
     RDKit          3D

 40 44  0  0  0  0  0  0  0  0999 V2000
   -3.3187    5.5557  -16.9675 O   0  0  0  0  0  0  0  0  0  0  0  0
   -3.7958    5.2630  -18.0213 C   0  0  0  0  0  0  0  0  0  0  0  0
   -5.1342    4.9955  -18.3890 N   0  0  0  0  0  0  0  0  0  0  0  0
   -6.2911    4.9014  -17.6225 C   0  0  0  0  0  0  0  0  0  0  0  0
   -7.4753    4.5269  -18.2591 C   0  0  0  0  0  0  0  0  0  0  0  0
   -8.6432    4.3724  -17.5154 C   0  0  0  0  0  0  0  0  0  0  0  0
  -10.1069    3.9667  -18.3102 Cl  0  0  0  0  0  0  0  0  0  0  0  0
   -8.6503    4.5965  -16.1437 C   0  0  0  0  0  0  0  0  0  0  0  0
   -7.4769    5.0173  -15.5235 C   0  0  0  0  0  0  0  0  0  0  0  0
   -7.5107    5.4752  -14.1185 C   0  0  0  0  0  0  0  0  0  0  0  0
   -7.2941    6.6422  -13.9517 O   0  0  0  0  0  0  0  0  0  0  0  0
   -7.8608    4.4432  -13.1867 N   0  0  0  0  0  0  0  0  0  0  0  0
   -7.9658    4.4632  -11.7960 C   0  0  0  0  0  0  0  0  0  0  0  0
   -8.2784    3.2855  -11.1208 C   0  0  0  0  0  0  0  0  0  0  0  0
   -8.3823    3.2787   -9.7242 C   0  0  0  0  0  0  0  0  0  0  0  0
   -8.1871    4.4517   -8.9767 C   0  0  0  0  0  0  0  0  0  0  0  0
   -8.2921    4.3713   -7.4643 C   0  0  0  0  0  0  0  0  0  0  0  0
   -8.3290    5.7096   -6.7107 C   0  0  0  0  0  0  0  0  0  0  0  0
   -9.1382    6.5595   -6.9906 O   0  0  0  0  0  0  0  0  0  0  0  0
   -7.3059    5.6891   -5.6956 N   0  0  0  0  0  0  0  0  0  0  0  0
   -5.9547    6.2606   -6.2692 C   0  0  0  0  0  0  0  0  0  0  0  0
   -4.7207    5.5782   -5.6545 C   0  0  0  0  0  0  0  0  0  0  0  0
   -4.8491    5.4990   -4.1432 C   0  0  0  0  0  0  0  0  0  0  0  0
   -5.8749    6.5106   -3.7516 C   0  0  0  0  0  0  0  0  0  0  0  0
   -5.7252    7.3128   -2.6158 C   0  0  0  0  0  0  0  0  0  0  0  0
   -6.6928    8.2675   -2.3096 C   0  0  0  0  0  0  0  0  0  0  0  0
   -7.8148    8.4113   -3.1240 C   0  0  0  0  0  0  0  0  0  0  0  0
   -7.9759    7.6006   -4.2510 C   0  0  0  0  0  0  0  0  0  0  0  0
   -6.9962    6.6608   -4.6033 C   0  0  0  0  0  0  0  0  0  0  0  0
   -7.8695    5.6261   -9.6691 C   0  0  0  0  0  0  0  0  0  0  0  0
   -7.7608    5.6312  -11.0642 C   0  0  0  0  0  0  0  0  0  0  0  0
   -6.2949    5.1671  -16.2537 C   0  0  0  0  0  0  0  0  0  0  0  0
   -3.0715    5.1563  -19.1677 O   0  0  0  0  0  0  0  0  0  0  0  0
   -1.6715    5.4543  -19.0603 C   0  0  0  0  0  0  0  0  0  0  0  0
   -1.4211    6.8388  -19.6016 C   0  0  0  0  0  0  0  0  0  0  0  0
   -0.7653    7.0171  -20.8263 C   0  0  0  0  0  0  0  0  0  0  0  0
   -0.5492    8.3003  -21.3318 C   0  0  0  0  0  0  0  0  0  0  0  0
   -0.9877    9.4162  -20.6204 C   0  0  0  0  0  0  0  0  0  0  0  0
   -1.6378    9.2513  -19.3995 C   0  0  0  0  0  0  0  0  0  0  0  0
   -1.8508    7.9698  -18.8910 C   0  0  0  0  0  0  0  0  0  0  0  0
  1  2  2  0
  2  3  1  0
  3  4  1  0
  4  5  2  0
  5  6  1  0
  6  7  1  0
  6  8  2  0
  8  9  1  0
  9 10  1  0
 10 11  2  0
 10 12  1  0
 12 13  1  0
 13 14  2  0
 14 15  1  0
 15 16  2  0
 16 17  1  0
 17 18  1  0
 18 19  2  0
 18 20  1  0
 20 21  1  0
 21 22  1  0
 22 23  1  0
 23 24  1  0
 24 25  2  0
 25 26  1  0
 26 27  2  0
 27 28  1  0
 28 29  2  0
 16 30  1  0
 30 31  2  0
  9 32  2  0
  2 33  1  0
 33 34  1  0
 34 35  1  0
 35 36  2  0
 36 37  1  0
 37 38  2  0
 38 39  1  0
 39 40  2  0
 32  4  1  0
 40 35  1  0
 31 13  1  0
 29 20  1  0
 29 24  1  0
M  END
>  <name>  (1209) 
P140131

>  <alias>  (1209) 
None

>  <smina_score_min>  (1209) 
-7.523

>  <exports>  (1209) 
['/opt/xchem-fragalysis-2/maxwin/BulkDock/OUTPUTS/openbind_xx01zvns2b_c2_elabs_1LOUTNY.sdf', '/opt/xchem-fragalysis-2/maxwin/BulkDock/OUTPUTS/openbind_xx01zvns2b_c2_elabs_1LSYIIV.sdf']

>  <tags>  (1209) 
syndirella_placed,openbind_xx01zvns2b_c2_elabs,openbind_xx01zvns2b_c2_elabs_scored_6.2plus,syndirella_product,openbind_xx01zvns2b_c2_elabs_scored,openbind_xx01zvns2b_c2_elabs_scored_top80percent,BulkDock Fragalysis export

>  <subsites>  (1209) 
1 - Z4590/B/203/1

>  <smiles>  (1209) 
O=C(Nc1cc(Cl)cc(C(=O)Nc2ccc(CC(=O)N3CCCc4ccccc43)cc2)c1)OCc1ccccc1

>  <HIPPO Pose ID>  (1209) 
140131

>  <energy_score>  (1209) 
-19.541031

>  <inchikey>  (1209) 
PDKXWFYALIPFSY-UHFFFAOYSA-N

>  <gnina_score_min>  (1209) 
6.219

>  <gnina_score>  (1209) 
6.043

>  <ref_mols>  (1209) 
Z3024a

>  <HIPPO Compound ID>  (1209) 
198909

>  <distance_score>  (1209) 
1.016395

>  <rmsd(smina/fragmenstein)>  (1209) 
1.246

>  <ref_pdb>  (1209) 
Z3024a

>  <inspiration_score>  (1209) 
None

$$$$
P140185
     RDKit          3D

 31 33  0  0  0  0  0  0  0  0999 V2000
   -3.5685    9.2823  -22.0219 C   0  0  0  0  0  0  0  0  0  0  0  0
   -4.6652    8.3660  -22.5763 C   0  0  0  0  0  0  0  0  0  0  0  0
   -4.1377    7.4430  -23.6804 C   0  0  0  0  0  0  0  0  0  0  0  0
   -5.7759    9.2426  -23.1731 C   0  0  0  0  0  0  0  0  0  0  0  0
   -5.3085    7.6144  -21.5133 O   0  0  0  0  0  0  0  0  0  0  0  0
   -4.6081    6.7005  -20.7845 C   0  0  0  0  0  0  0  0  0  0  0  0
   -3.4744    6.4908  -20.9129 O   0  0  0  0  0  0  0  0  0  0  0  0
   -5.6169    6.1039  -19.8196 N   0  0  0  0  0  0  0  0  0  0  0  0
   -5.4778    5.0499  -18.8622 C   0  0  0  0  0  0  0  0  0  0  0  0
   -6.6563    4.9049  -17.9436 C   0  0  0  0  0  0  0  0  0  0  0  0
   -7.9010    4.4939  -18.4385 C   0  0  0  0  0  0  0  0  0  0  0  0
   -8.9940    4.3619  -17.5831 C   0  0  0  0  0  0  0  0  0  0  0  0
  -10.5427    4.0352  -18.2390 Cl  0  0  0  0  0  0  0  0  0  0  0  0
   -8.8632    4.5844  -16.2165 C   0  0  0  0  0  0  0  0  0  0  0  0
   -7.6346    5.0093  -15.7182 C   0  0  0  0  0  0  0  0  0  0  0  0
   -7.5312    5.5019  -14.3252 C   0  0  0  0  0  0  0  0  0  0  0  0
   -7.1230    6.5872  -14.1784 O   0  0  0  0  0  0  0  0  0  0  0  0
   -8.0199    4.4637  -13.2844 N   0  0  0  0  0  0  0  0  0  0  0  0
   -8.1909    4.5759  -11.9043 C   0  0  0  0  0  0  0  0  0  0  0  0
   -8.4376    3.4467  -11.1219 C   0  0  0  0  0  0  0  0  0  0  0  0
   -8.6009    3.5993   -9.7437 C   0  0  0  0  0  0  0  0  0  0  0  0
   -8.9999    2.1438   -8.6087 Br  0  0  0  0  0  0  0  0  0  0  0  0
   -8.5379    4.8569   -9.1472 C   0  0  0  0  0  0  0  0  0  0  0  0
   -8.3508    5.9980   -9.9276 C   0  0  0  0  0  0  0  0  0  0  0  0
   -8.4539    7.3339   -9.3544 C   0  0  0  0  0  0  0  0  0  0  0  0
   -8.6416    8.4751   -9.9907 N   0  0  0  0  0  0  0  0  0  0  0  0
   -8.7591    9.4477   -9.0284 N   0  0  0  0  0  0  0  0  0  0  0  0
   -8.6292    8.9329   -7.8156 N   0  0  0  0  0  0  0  0  0  0  0  0
   -8.4287    7.6261   -8.0181 N   0  0  0  0  0  0  0  0  0  0  0  0
   -8.1483    5.8402  -11.3042 C   0  0  0  0  0  0  0  0  0  0  0  0
   -6.5386    5.1809  -16.5755 C   0  0  0  0  0  0  0  0  0  0  0  0
  1  2  1  0
  2  3  1  0
  2  4  1  0
  2  5  1  0
  5  6  1  0
  6  7  2  0
  6  8  1  0
  8  9  1  0
  9 10  1  0
 10 11  2  0
 11 12  1  0
 12 13  1  0
 12 14  2  0
 14 15  1  0
 15 16  1  0
 16 17  2  0
 16 18  1  0
 18 19  1  0
 19 20  2  0
 20 21  1  0
 21 22  1  0
 21 23  2  0
 23 24  1  0
 24 25  1  0
 25 26  2  0
 26 27  1  0
 27 28  2  0
 28 29  1  0
 24 30  2  0
 15 31  2  0
 31 10  1  0
 30 19  1  0
 29 25  1  0
M  END
>  <name>  (1210) 
P140185

>  <alias>  (1210) 
None

>  <smina_score_min>  (1210) 
-7.577

>  <exports>  (1210) 
['/opt/xchem-fragalysis-2/maxwin/BulkDock/OUTPUTS/openbind_xx01zvns2b_c2_elabs_1LOUTNY.sdf', '/opt/xchem-fragalysis-2/maxwin/BulkDock/OUTPUTS/openbind_xx01zvns2b_c2_elabs_1LSYIIV.sdf']

>  <tags>  (1210) 
syndirella_placed,openbind_xx01zvns2b_c2_elabs,openbind_xx01zvns2b_c2_elabs_scored_6.2plus,syndirella_product,openbind_xx01zvns2b_c2_elabs_scored,openbind_xx01zvns2b_c2_elabs_scored_top80percent,BulkDock Fragalysis export

>  <subsites>  (1210) 
1 - Z4590/B/203/1

>  <smiles>  (1210) 
CC(C)(C)OC(=O)NCc1cc(Cl)cc(C(=O)Nc2cc(Br)cc(-c3nnn[nH]3)c2)c1

>  <HIPPO Pose ID>  (1210) 
140185

>  <energy_score>  (1210) 
-3.166618

>  <inchikey>  (1210) 
CLWHDWMOQGYQQH-UHFFFAOYSA-N

>  <gnina_score_min>  (1210) 
6.214

>  <gnina_score>  (1210) 
6.151

>  <ref_mols>  (1210) 
Z3264a

>  <HIPPO Compound ID>  (1210) 
198945

>  <distance_score>  (1210) 
0.427609

>  <rmsd(smina/fragmenstein)>  (1210) 
0.991

>  <ref_pdb>  (1210) 
Z3264a

>  <inspiration_score>  (1210) 
None

$$$$
P140186
     RDKit          3D

 31 33  0  0  0  0  0  0  0  0999 V2000
   -4.1445    7.4729  -23.7374 C   0  0  0  0  0  0  0  0  0  0  0  0
   -4.7202    8.3969  -22.6577 C   0  0  0  0  0  0  0  0  0  0  0  0
   -5.8508    9.2230  -23.2875 C   0  0  0  0  0  0  0  0  0  0  0  0
   -3.6652    9.3622  -22.1050 C   0  0  0  0  0  0  0  0  0  0  0  0
   -5.3534    7.6409  -21.5914 O   0  0  0  0  0  0  0  0  0  0  0  0
   -4.6283    6.7612  -20.8439 C   0  0  0  0  0  0  0  0  0  0  0  0
   -3.4829    6.6109  -20.9450 O   0  0  0  0  0  0  0  0  0  0  0  0
   -5.6291    6.1034  -19.9122 N   0  0  0  0  0  0  0  0  0  0  0  0
   -5.4607    5.0465  -18.9620 C   0  0  0  0  0  0  0  0  0  0  0  0
   -6.6034    4.8683  -18.0050 C   0  0  0  0  0  0  0  0  0  0  0  0
   -7.9126    4.6597  -18.4594 C   0  0  0  0  0  0  0  0  0  0  0  0
   -8.9549    4.4150  -17.5676 C   0  0  0  0  0  0  0  0  0  0  0  0
  -10.5506    4.2177  -18.1692 Cl  0  0  0  0  0  0  0  0  0  0  0  0
   -8.7051    4.3161  -16.2052 C   0  0  0  0  0  0  0  0  0  0  0  0
   -7.3915    4.4514  -15.7488 C   0  0  0  0  0  0  0  0  0  0  0  0
   -7.0433    4.0992  -14.3503 C   0  0  0  0  0  0  0  0  0  0  0  0
   -6.2025    3.3156  -14.1617 O   0  0  0  0  0  0  0  0  0  0  0  0
   -7.9354    4.8639  -13.3567 N   0  0  0  0  0  0  0  0  0  0  0  0
   -8.0429    4.7599  -11.9752 C   0  0  0  0  0  0  0  0  0  0  0  0
   -8.3908    5.9034  -11.2557 C   0  0  0  0  0  0  0  0  0  0  0  0
   -8.4212    5.8747   -9.8527 C   0  0  0  0  0  0  0  0  0  0  0  0
   -8.6597    7.0864   -9.0749 C   0  0  0  0  0  0  0  0  0  0  0  0
   -8.3839    7.2950   -7.8006 N   0  0  0  0  0  0  0  0  0  0  0  0
   -8.7433    8.5919   -7.5274 N   0  0  0  0  0  0  0  0  0  0  0  0
   -9.2508    9.1798   -8.5991 N   0  0  0  0  0  0  0  0  0  0  0  0
   -9.2293    8.2381   -9.5489 N   0  0  0  0  0  0  0  0  0  0  0  0
   -8.1739    4.6585   -9.1939 C   0  0  0  0  0  0  0  0  0  0  0  0
   -7.8776    3.5006   -9.9170 C   0  0  0  0  0  0  0  0  0  0  0  0
   -7.7901    3.5617  -11.3016 C   0  0  0  0  0  0  0  0  0  0  0  0
   -7.5086    2.4402  -11.9774 F   0  0  0  0  0  0  0  0  0  0  0  0
   -6.3521    4.7537  -16.6339 C   0  0  0  0  0  0  0  0  0  0  0  0
  1  2  1  0
  2  3  1  0
  2  4  1  0
  2  5  1  0
  5  6  1  0
  6  7  2  0
  6  8  1  0
  8  9  1  0
  9 10  1  0
 10 11  2  0
 11 12  1  0
 12 13  1  0
 12 14  2  0
 14 15  1  0
 15 16  1  0
 16 17  2  0
 16 18  1  0
 18 19  1  0
 19 20  2  0
 20 21  1  0
 21 22  1  0
 22 23  2  0
 23 24  1  0
 24 25  2  0
 25 26  1  0
 21 27  2  0
 27 28  1  0
 28 29  2  0
 29 30  1  0
 15 31  2  0
 31 10  1  0
 29 19  1  0
 26 22  1  0
M  END
>  <name>  (1211) 
P140186

>  <alias>  (1211) 
None

>  <smina_score_min>  (1211) 
-7.507

>  <exports>  (1211) 
['/opt/xchem-fragalysis-2/maxwin/BulkDock/OUTPUTS/openbind_xx01zvns2b_c2_elabs_1LOUTNY.sdf', '/opt/xchem-fragalysis-2/maxwin/BulkDock/OUTPUTS/openbind_xx01zvns2b_c2_elabs_1LSYIIV.sdf']

>  <tags>  (1211) 
syndirella_placed,openbind_xx01zvns2b_c2_elabs,openbind_xx01zvns2b_c2_elabs_scored_6.2plus,syndirella_product,openbind_xx01zvns2b_c2_elabs_scored,openbind_xx01zvns2b_c2_elabs_scored_top80percent,BulkDock Fragalysis export

>  <subsites>  (1211) 
1 - Z4590/B/203/1

>  <smiles>  (1211) 
CC(C)(C)OC(=O)NCc1cc(Cl)cc(C(=O)Nc2cc(-c3nnn[nH]3)ccc2F)c1

>  <HIPPO Pose ID>  (1211) 
140186

>  <energy_score>  (1211) 
-4.087229

>  <inchikey>  (1211) 
LGHQWMONVIEKSY-UHFFFAOYSA-N

>  <gnina_score_min>  (1211) 
6.215

>  <gnina_score>  (1211) 
6.004

>  <ref_mols>  (1211) 
Z3264a

>  <HIPPO Compound ID>  (1211) 
198946

>  <distance_score>  (1211) 
0.761349

>  <rmsd(smina/fragmenstein)>  (1211) 
0.862

>  <ref_pdb>  (1211) 
Z3264a

>  <inspiration_score>  (1211) 
None

$$$$
P140188
     RDKit          3D

 31 33  0  0  0  0  0  0  0  0999 V2000
   -2.8117   10.8536  -17.6130 C   0  0  0  0  0  0  0  0  0  0  0  0
   -4.2104   10.4984  -18.1393 C   0  0  0  0  0  0  0  0  0  0  0  0
   -5.2534   10.9781  -17.1230 C   0  0  0  0  0  0  0  0  0  0  0  0
   -4.4018   11.1577  -19.5097 C   0  0  0  0  0  0  0  0  0  0  0  0
   -4.2067    9.0509  -18.2481 O   0  0  0  0  0  0  0  0  0  0  0  0
   -5.3086    8.3794  -18.6734 C   0  0  0  0  0  0  0  0  0  0  0  0
   -6.3056    8.8749  -18.9993 O   0  0  0  0  0  0  0  0  0  0  0  0
   -4.9131    6.9140  -18.6012 N   0  0  0  0  0  0  0  0  0  0  0  0
   -5.6283    5.7285  -19.0058 C   0  0  0  0  0  0  0  0  0  0  0  0
   -6.6953    5.3262  -18.0190 C   0  0  0  0  0  0  0  0  0  0  0  0
   -7.8534    4.6845  -18.4833 C   0  0  0  0  0  0  0  0  0  0  0  0
   -8.9090    4.4035  -17.6183 C   0  0  0  0  0  0  0  0  0  0  0  0
  -10.4129    3.8955  -18.2571 Cl  0  0  0  0  0  0  0  0  0  0  0  0
   -8.8001    4.6603  -16.2601 C   0  0  0  0  0  0  0  0  0  0  0  0
   -7.6413    5.2732  -15.7893 C   0  0  0  0  0  0  0  0  0  0  0  0
   -7.6064    5.7462  -14.3921 C   0  0  0  0  0  0  0  0  0  0  0  0
   -7.5764    6.8911  -14.1773 O   0  0  0  0  0  0  0  0  0  0  0  0
   -7.6547    4.5519  -13.4261 N   0  0  0  0  0  0  0  0  0  0  0  0
   -7.7680    4.5144  -12.0395 C   0  0  0  0  0  0  0  0  0  0  0  0
   -8.0990    5.6710  -11.3288 C   0  0  0  0  0  0  0  0  0  0  0  0
   -8.2493    5.6406   -9.9357 C   0  0  0  0  0  0  0  0  0  0  0  0
   -8.5443    6.8541   -9.1762 C   0  0  0  0  0  0  0  0  0  0  0  0
   -8.4772    7.0257   -7.8678 N   0  0  0  0  0  0  0  0  0  0  0  0
   -8.8208    8.3331   -7.6230 N   0  0  0  0  0  0  0  0  0  0  0  0
   -9.1102    8.9670   -8.7482 N   0  0  0  0  0  0  0  0  0  0  0  0
   -8.9528    8.0489   -9.7108 N   0  0  0  0  0  0  0  0  0  0  0  0
   -8.0865    4.4133   -9.2737 C   0  0  0  0  0  0  0  0  0  0  0  0
   -7.7373    3.2540   -9.9791 C   0  0  0  0  0  0  0  0  0  0  0  0
   -7.5520    3.3143  -11.3579 C   0  0  0  0  0  0  0  0  0  0  0  0
   -6.8841    1.9610  -12.2024 Cl  0  0  0  0  0  0  0  0  0  0  0  0
   -6.5905    5.6004  -16.6492 C   0  0  0  0  0  0  0  0  0  0  0  0
  1  2  1  0
  2  3  1  0
  2  4  1  0
  2  5  1  0
  5  6  1  0
  6  7  2  0
  6  8  1  0
  8  9  1  0
  9 10  1  0
 10 11  2  0
 11 12  1  0
 12 13  1  0
 12 14  2  0
 14 15  1  0
 15 16  1  0
 16 17  2  0
 16 18  1  0
 18 19  1  0
 19 20  2  0
 20 21  1  0
 21 22  1  0
 22 23  2  0
 23 24  1  0
 24 25  2  0
 25 26  1  0
 21 27  2  0
 27 28  1  0
 28 29  2  0
 29 30  1  0
 15 31  2  0
 31 10  1  0
 29 19  1  0
 26 22  1  0
M  END
>  <name>  (1212) 
P140188

>  <alias>  (1212) 
None

>  <smina_score_min>  (1212) 
-6.82

>  <exports>  (1212) 
['/opt/xchem-fragalysis-2/maxwin/BulkDock/OUTPUTS/openbind_xx01zvns2b_c2_elabs_1LOUTNY.sdf', '/opt/xchem-fragalysis-2/maxwin/BulkDock/OUTPUTS/openbind_xx01zvns2b_c2_elabs_1LSYIIV.sdf']

>  <tags>  (1212) 
syndirella_placed,openbind_xx01zvns2b_c2_elabs,openbind_xx01zvns2b_c2_elabs_scored_6.2plus,syndirella_product,openbind_xx01zvns2b_c2_elabs_scored,openbind_xx01zvns2b_c2_elabs_scored_top80percent,BulkDock Fragalysis export

>  <subsites>  (1212) 
1 - Z4590/B/203/1

>  <smiles>  (1212) 
CC(C)(C)OC(=O)NCc1cc(Cl)cc(C(=O)Nc2cc(-c3nnn[nH]3)ccc2Cl)c1

>  <HIPPO Pose ID>  (1212) 
140188

>  <energy_score>  (1212) 
-29.666284

>  <inchikey>  (1212) 
SJLGQORLUBXFOE-UHFFFAOYSA-N

>  <gnina_score_min>  (1212) 
6.351

>  <gnina_score>  (1212) 
6.316

>  <ref_mols>  (1212) 
Z3264a

>  <HIPPO Compound ID>  (1212) 
198948

>  <distance_score>  (1212) 
0.701191

>  <rmsd(smina/fragmenstein)>  (1212) 
1.013

>  <ref_pdb>  (1212) 
Z3264a

>  <inspiration_score>  (1212) 
None

$$$$
P140192
     RDKit          3D

 32 34  0  0  0  0  0  0  0  0999 V2000
   -9.1499    8.7995  -11.1024 C   0  0  0  0  0  0  0  0  0  0  0  0
   -8.7925    8.4377   -9.7596 N   0  0  0  0  0  0  0  0  0  0  0  0
   -8.8401    9.3805   -8.8009 N   0  0  0  0  0  0  0  0  0  0  0  0
   -8.5239    8.7550   -7.6811 N   0  0  0  0  0  0  0  0  0  0  0  0
   -8.2740    7.4308   -7.9154 N   0  0  0  0  0  0  0  0  0  0  0  0
   -8.4315    7.2265   -9.2147 C   0  0  0  0  0  0  0  0  0  0  0  0
   -8.3411    5.9220   -9.8739 C   0  0  0  0  0  0  0  0  0  0  0  0
   -8.5680    4.7738   -9.1092 C   0  0  0  0  0  0  0  0  0  0  0  0
   -8.6424    3.5197   -9.7109 C   0  0  0  0  0  0  0  0  0  0  0  0
   -9.0434    2.1777   -8.7153 Cl  0  0  0  0  0  0  0  0  0  0  0  0
   -8.4619    3.3773  -11.0869 C   0  0  0  0  0  0  0  0  0  0  0  0
   -8.1764    4.5052  -11.8534 C   0  0  0  0  0  0  0  0  0  0  0  0
   -8.0209    4.4053  -13.2363 N   0  0  0  0  0  0  0  0  0  0  0  0
   -7.6069    5.4704  -14.2811 C   0  0  0  0  0  0  0  0  0  0  0  0
   -7.2572    6.5766  -14.1376 O   0  0  0  0  0  0  0  0  0  0  0  0
   -7.7092    4.9679  -15.6703 C   0  0  0  0  0  0  0  0  0  0  0  0
   -8.9404    4.5328  -16.1565 C   0  0  0  0  0  0  0  0  0  0  0  0
   -9.0934    4.3284  -17.5234 C   0  0  0  0  0  0  0  0  0  0  0  0
  -10.6491    4.0317  -18.1750 Cl  0  0  0  0  0  0  0  0  0  0  0  0
   -8.0168    4.4779  -18.3909 C   0  0  0  0  0  0  0  0  0  0  0  0
   -6.7696    4.8881  -17.9056 C   0  0  0  0  0  0  0  0  0  0  0  0
   -5.6465    5.1500  -18.8660 C   0  0  0  0  0  0  0  0  0  0  0  0
   -5.7457    6.4785  -19.3900 N   0  0  0  0  0  0  0  0  0  0  0  0
   -5.0460    7.7562  -18.9744 C   0  0  0  0  0  0  0  0  0  0  0  0
   -4.2152    7.9360  -18.1889 O   0  0  0  0  0  0  0  0  0  0  0  0
   -5.6113    8.7441  -19.7277 O   0  0  0  0  0  0  0  0  0  0  0  0
   -5.1005   10.1037  -19.6430 C   0  0  0  0  0  0  0  0  0  0  0  0
   -3.6357   10.1776  -20.0914 C   0  0  0  0  0  0  0  0  0  0  0  0
   -5.9501   10.9122  -20.6359 C   0  0  0  0  0  0  0  0  0  0  0  0
   -5.3056   10.6961  -18.2433 C   0  0  0  0  0  0  0  0  0  0  0  0
   -6.6282    5.1573  -16.5387 C   0  0  0  0  0  0  0  0  0  0  0  0
   -8.0883    5.7612  -11.2392 C   0  0  0  0  0  0  0  0  0  0  0  0
  1  2  1  0
  2  3  1  0
  3  4  2  0
  4  5  1  0
  5  6  2  0
  6  7  1  0
  7  8  2  0
  8  9  1  0
  9 10  1  0
  9 11  2  0
 11 12  1  0
 12 13  1  0
 13 14  1  0
 14 15  2  0
 14 16  1  0
 16 17  2  0
 17 18  1  0
 18 19  1  0
 18 20  2  0
 20 21  1  0
 21 22  1  0
 22 23  1  0
 23 24  1  0
 24 25  2  0
 24 26  1  0
 26 27  1  0
 27 28  1  0
 27 29  1  0
 27 30  1  0
 21 31  2  0
 12 32  2  0
  6  2  1  0
 32  7  1  0
 31 16  1  0
M  END
>  <name>  (1213) 
P140192

>  <alias>  (1213) 
None

>  <smina_score_min>  (1213) 
-7.508

>  <exports>  (1213) 
['/opt/xchem-fragalysis-2/maxwin/BulkDock/OUTPUTS/openbind_xx01zvns2b_c2_elabs_1LOUTNY.sdf', '/opt/xchem-fragalysis-2/maxwin/BulkDock/OUTPUTS/openbind_xx01zvns2b_c2_elabs_1LSYIIV.sdf']

>  <tags>  (1213) 
syndirella_placed,openbind_xx01zvns2b_c2_elabs,openbind_xx01zvns2b_c2_elabs_scored_6.2plus,syndirella_product,openbind_xx01zvns2b_c2_elabs_scored,openbind_xx01zvns2b_c2_elabs_scored_top80percent,BulkDock Fragalysis export

>  <subsites>  (1213) 
1 - Z4590/B/203/1

>  <smiles>  (1213) 
Cn1nnnc1-c1cc(Cl)cc(NC(=O)c2cc(Cl)cc(CNC(=O)OC(C)(C)C)c2)c1

>  <HIPPO Pose ID>  (1213) 
140192

>  <energy_score>  (1213) 
-29.289909

>  <inchikey>  (1213) 
SRYCMBLFRXEDDS-UHFFFAOYSA-N

>  <gnina_score_min>  (1213) 
6.391

>  <gnina_score>  (1213) 
6.308

>  <ref_mols>  (1213) 
Z3264a

>  <HIPPO Compound ID>  (1213) 
198952

>  <distance_score>  (1213) 
0.411193

>  <rmsd(smina/fragmenstein)>  (1213) 
0.799

>  <ref_pdb>  (1213) 
Z3264a

>  <inspiration_score>  (1213) 
None

$$$$
P140193
     RDKit          3D

 33 36  0  0  0  0  0  0  0  0999 V2000
   -3.0486    9.0240  -22.2960 C   0  0  0  0  0  0  0  0  0  0  0  0
   -4.3936    8.3559  -22.5981 C   0  0  0  0  0  0  0  0  0  0  0  0
   -4.3028    7.3933  -23.7860 C   0  0  0  0  0  0  0  0  0  0  0  0
   -5.4212    9.4470  -22.9359 C   0  0  0  0  0  0  0  0  0  0  0  0
   -4.9277    7.7027  -21.4182 O   0  0  0  0  0  0  0  0  0  0  0  0
   -4.3014    6.6405  -20.8416 C   0  0  0  0  0  0  0  0  0  0  0  0
   -3.2604    6.1946  -21.2195 O   0  0  0  0  0  0  0  0  0  0  0  0
   -5.1221    6.2717  -19.7660 N   0  0  0  0  0  0  0  0  0  0  0  0
   -4.9316    5.3078  -18.7239 C   0  0  0  0  0  0  0  0  0  0  0  0
   -6.1705    5.1122  -17.8935 C   0  0  0  0  0  0  0  0  0  0  0  0
   -7.3445    4.6111  -18.4765 C   0  0  0  0  0  0  0  0  0  0  0  0
   -8.4962    4.4275  -17.7099 C   0  0  0  0  0  0  0  0  0  0  0  0
   -9.9510    3.9109  -18.4509 Cl  0  0  0  0  0  0  0  0  0  0  0  0
   -8.4980    4.7041  -16.3486 C   0  0  0  0  0  0  0  0  0  0  0  0
   -7.3375    5.2082  -15.7640 C   0  0  0  0  0  0  0  0  0  0  0  0
   -7.3484    5.6127  -14.3386 C   0  0  0  0  0  0  0  0  0  0  0  0
   -7.0149    6.7384  -14.1011 O   0  0  0  0  0  0  0  0  0  0  0  0
   -7.7588    4.5518  -13.4655 N   0  0  0  0  0  0  0  0  0  0  0  0
   -7.9816    4.5340  -12.0913 C   0  0  0  0  0  0  0  0  0  0  0  0
   -8.2112    3.3030  -11.4799 C   0  0  0  0  0  0  0  0  0  0  0  0
   -8.4424    3.2319  -10.1087 C   0  0  0  0  0  0  0  0  0  0  0  0
   -8.4643    4.3969   -9.3449 C   0  0  0  0  0  0  0  0  0  0  0  0
   -8.2389    5.6448   -9.9418 C   0  0  0  0  0  0  0  0  0  0  0  0
   -8.3115    6.8874   -9.1790 C   0  0  0  0  0  0  0  0  0  0  0  0
   -8.8658    8.0211   -9.5799 N   0  0  0  0  0  0  0  0  0  0  0  0
   -8.7493    8.9108   -8.5400 N   0  0  0  0  0  0  0  0  0  0  0  0
   -8.1146    8.3632   -7.5150 N   0  0  0  0  0  0  0  0  0  0  0  0
   -7.8113    7.1209   -7.9196 N   0  0  0  0  0  0  0  0  0  0  0  0
   -7.0286    6.1924   -7.0756 C   0  0  0  0  0  0  0  0  0  0  0  0
   -5.7180    5.5896   -7.5275 C   0  0  0  0  0  0  0  0  0  0  0  0
   -5.7273    6.6029   -6.4233 C   0  0  0  0  0  0  0  0  0  0  0  0
   -7.9935    5.6999  -11.3233 C   0  0  0  0  0  0  0  0  0  0  0  0
   -6.1824    5.4250  -16.5278 C   0  0  0  0  0  0  0  0  0  0  0  0
  1  2  1  0
  2  3  1  0
  2  4  1  0
  2  5  1  0
  5  6  1  0
  6  7  2  0
  6  8  1  0
  8  9  1  0
  9 10  1  0
 10 11  2  0
 11 12  1  0
 12 13  1  0
 12 14  2  0
 14 15  1  0
 15 16  1  0
 16 17  2  0
 16 18  1  0
 18 19  1  0
 19 20  2  0
 20 21  1  0
 21 22  2  0
 22 23  1  0
 23 24  1  0
 24 25  2  0
 25 26  1  0
 26 27  2  0
 27 28  1  0
 28 29  1  0
 29 30  1  0
 30 31  1  0
 23 32  2  0
 15 33  2  0
 33 10  1  0
 32 19  1  0
 28 24  1  0
 31 29  1  0
M  END
>  <name>  (1214) 
P140193

>  <alias>  (1214) 
None

>  <smina_score_min>  (1214) 
-7.103

>  <exports>  (1214) 
['/opt/xchem-fragalysis-2/maxwin/BulkDock/OUTPUTS/openbind_xx01zvns2b_c2_elabs_1LOUTNY.sdf', '/opt/xchem-fragalysis-2/maxwin/BulkDock/OUTPUTS/openbind_xx01zvns2b_c2_elabs_1LSYIIV.sdf']

>  <tags>  (1214) 
syndirella_placed,openbind_xx01zvns2b_c2_elabs,openbind_xx01zvns2b_c2_elabs_scored_6.2plus,syndirella_product,openbind_xx01zvns2b_c2_elabs_scored,openbind_xx01zvns2b_c2_elabs_scored_top80percent,BulkDock Fragalysis export

>  <subsites>  (1214) 
1 - Z4590/B/203/1

>  <smiles>  (1214) 
CC(C)(C)OC(=O)NCc1cc(Cl)cc(C(=O)Nc2cccc(-c3nnnn3C3CC3)c2)c1

>  <HIPPO Pose ID>  (1214) 
140193

>  <energy_score>  (1214) 
-48.461127

>  <inchikey>  (1214) 
OJAUJGWQWRWEQW-UHFFFAOYSA-N

>  <gnina_score_min>  (1214) 
6.298

>  <gnina_score>  (1214) 
6.006

>  <ref_mols>  (1214) 
Z3264a

>  <HIPPO Compound ID>  (1214) 
198953

>  <distance_score>  (1214) 
0.681349

>  <rmsd(smina/fragmenstein)>  (1214) 
1.144

>  <ref_pdb>  (1214) 
Z3264a

>  <inspiration_score>  (1214) 
None

$$$$
P140194
     RDKit          3D

 33 35  0  0  0  0  0  0  0  0999 V2000
   -8.2985    6.1276   -5.8039 C   0  0  0  0  0  0  0  0  0  0  0  0
   -7.3902    6.5272   -6.9672 C   0  0  0  0  0  0  0  0  0  0  0  0
   -6.1663    7.2981   -6.4642 C   0  0  0  0  0  0  0  0  0  0  0  0
   -8.1279    7.2734   -7.9716 N   0  0  0  0  0  0  0  0  0  0  0  0
   -8.5134    8.5389   -7.7101 N   0  0  0  0  0  0  0  0  0  0  0  0
   -9.0393    8.9849   -8.8373 N   0  0  0  0  0  0  0  0  0  0  0  0
   -9.0129    8.0169   -9.8031 N   0  0  0  0  0  0  0  0  0  0  0  0
   -8.4835    6.9333   -9.2564 C   0  0  0  0  0  0  0  0  0  0  0  0
   -8.3334    5.6440   -9.9323 C   0  0  0  0  0  0  0  0  0  0  0  0
   -8.5324    4.4191   -9.2807 C   0  0  0  0  0  0  0  0  0  0  0  0
   -8.4769    3.2187   -9.9890 C   0  0  0  0  0  0  0  0  0  0  0  0
   -8.2534    3.2304  -11.3631 C   0  0  0  0  0  0  0  0  0  0  0  0
   -8.0541    4.4362  -12.0282 C   0  0  0  0  0  0  0  0  0  0  0  0
   -7.8638    4.4161  -13.4056 N   0  0  0  0  0  0  0  0  0  0  0  0
   -7.5270    5.5585  -14.3883 C   0  0  0  0  0  0  0  0  0  0  0  0
   -7.2807    6.6814  -14.1872 O   0  0  0  0  0  0  0  0  0  0  0  0
   -7.5971    5.0944  -15.7876 C   0  0  0  0  0  0  0  0  0  0  0  0
   -8.8154    4.6490  -16.2940 C   0  0  0  0  0  0  0  0  0  0  0  0
   -8.9205    4.3870  -17.6529 C   0  0  0  0  0  0  0  0  0  0  0  0
  -10.4600    4.0285  -18.3110 Cl  0  0  0  0  0  0  0  0  0  0  0  0
   -7.8092    4.5002  -18.4873 C   0  0  0  0  0  0  0  0  0  0  0  0
   -6.5739    4.9294  -17.9765 C   0  0  0  0  0  0  0  0  0  0  0  0
   -5.3789    5.0598  -18.8763 C   0  0  0  0  0  0  0  0  0  0  0  0
   -5.4954    6.1374  -19.8084 N   0  0  0  0  0  0  0  0  0  0  0  0
   -4.5119    6.6618  -20.8388 C   0  0  0  0  0  0  0  0  0  0  0  0
   -3.4127    6.3579  -21.0537 O   0  0  0  0  0  0  0  0  0  0  0  0
   -5.1783    7.6628  -21.4779 O   0  0  0  0  0  0  0  0  0  0  0  0
   -4.5621    8.3925  -22.5700 C   0  0  0  0  0  0  0  0  0  0  0  0
   -5.6435    9.3731  -23.0473 C   0  0  0  0  0  0  0  0  0  0  0  0
   -4.2031    7.4653  -23.7363 C   0  0  0  0  0  0  0  0  0  0  0  0
   -3.3523    9.1971  -22.0831 C   0  0  0  0  0  0  0  0  0  0  0  0
   -6.4829    5.2495  -16.6170 C   0  0  0  0  0  0  0  0  0  0  0  0
   -8.0801    5.6341  -11.3135 C   0  0  0  0  0  0  0  0  0  0  0  0
  1  2  1  0
  2  3  1  0
  2  4  1  0
  4  5  1  0
  5  6  2  0
  6  7  1  0
  7  8  2  0
  8  9  1  0
  9 10  2  0
 10 11  1  0
 11 12  2  0
 12 13  1  0
 13 14  1  0
 14 15  1  0
 15 16  2  0
 15 17  1  0
 17 18  2  0
 18 19  1  0
 19 20  1  0
 19 21  2  0
 21 22  1  0
 22 23  1  0
 23 24  1  0
 24 25  1  0
 25 26  2  0
 25 27  1  0
 27 28  1  0
 28 29  1  0
 28 30  1  0
 28 31  1  0
 22 32  2  0
 13 33  2  0
  8  4  1  0
 33  9  1  0
 32 17  1  0
M  END
>  <name>  (1215) 
P140194

>  <alias>  (1215) 
None

>  <smina_score_min>  (1215) 
-7.2

>  <exports>  (1215) 
['/opt/xchem-fragalysis-2/maxwin/BulkDock/OUTPUTS/openbind_xx01zvns2b_c2_elabs_1LOUTNY.sdf', '/opt/xchem-fragalysis-2/maxwin/BulkDock/OUTPUTS/openbind_xx01zvns2b_c2_elabs_1LSYIIV.sdf']

>  <tags>  (1215) 
syndirella_placed,openbind_xx01zvns2b_c2_elabs,openbind_xx01zvns2b_c2_elabs_scored_6.2plus,syndirella_product,openbind_xx01zvns2b_c2_elabs_scored,openbind_xx01zvns2b_c2_elabs_scored_top80percent,BulkDock Fragalysis export

>  <subsites>  (1215) 
1 - Z4590/B/203/1

>  <smiles>  (1215) 
CC(C)n1nnnc1-c1cccc(NC(=O)c2cc(Cl)cc(CNC(=O)OC(C)(C)C)c2)c1

>  <HIPPO Pose ID>  (1215) 
140194

>  <energy_score>  (1215) 
-32.360129

>  <inchikey>  (1215) 
XCUOIWUCCBHTRO-UHFFFAOYSA-N

>  <gnina_score_min>  (1215) 
6.255

>  <gnina_score>  (1215) 
6.041

>  <ref_mols>  (1215) 
Z3264a

>  <HIPPO Compound ID>  (1215) 
198954

>  <distance_score>  (1215) 
0.422356

>  <rmsd(smina/fragmenstein)>  (1215) 
0.814

>  <ref_pdb>  (1215) 
Z3264a

>  <inspiration_score>  (1215) 
None

$$$$
P140234
     RDKit          3D

 25 28  0  0  0  0  0  0  0  0999 V2000
   -7.8049    8.2804  -11.4901 C   0  0  0  0  0  0  0  0  0  0  0  0
   -7.8415    7.1328  -11.1365 C   0  0  0  0  0  0  0  0  0  0  0  0
   -7.9371    5.7912  -10.6501 C   0  0  0  0  0  0  0  0  0  0  0  0
   -8.1738    5.6480   -9.2839 C   0  0  0  0  0  0  0  0  0  0  0  0
   -8.4894    4.4879   -8.6791 N   0  0  0  0  0  0  0  0  0  0  0  0
   -8.5982    3.4092   -9.4869 C   0  0  0  0  0  0  0  0  0  0  0  0
   -9.1747    2.0331   -8.6524 Cl  0  0  0  0  0  0  0  0  0  0  0  0
   -8.3493    3.4348  -10.8557 C   0  0  0  0  0  0  0  0  0  0  0  0
   -8.4703    2.3380  -11.6202 F   0  0  0  0  0  0  0  0  0  0  0  0
   -7.9654    4.6424  -11.4537 C   0  0  0  0  0  0  0  0  0  0  0  0
   -7.6358    4.6181  -12.8250 N   0  0  0  0  0  0  0  0  0  0  0  0
   -6.8245    5.6205  -13.6822 C   0  0  0  0  0  0  0  0  0  0  0  0
   -6.2390    6.5811  -13.3708 O   0  0  0  0  0  0  0  0  0  0  0  0
   -6.8847    5.2587  -15.1141 C   0  0  0  0  0  0  0  0  0  0  0  0
   -7.9730    4.6750  -15.8405 C   0  0  0  0  0  0  0  0  0  0  0  0
   -7.6230    4.6411  -17.1727 C   0  0  0  0  0  0  0  0  0  0  0  0
   -8.5040    4.2150  -18.3788 C   0  0  0  0  0  0  0  0  0  0  0  0
   -9.0895    2.8379  -18.3894 C   0  0  0  0  0  0  0  0  0  0  0  0
   -9.9853    4.0348  -18.2590 C   0  0  0  0  0  0  0  0  0  0  0  0
   -6.3342    5.0866  -17.2866 N   0  0  0  0  0  0  0  0  0  0  0  0
   -5.5898    5.1206  -18.5245 C   0  0  0  0  0  0  0  0  0  0  0  0
   -5.8961    5.5205  -16.0619 C   0  0  0  0  0  0  0  0  0  0  0  0
   -4.4928    6.1410  -15.7643 C   0  0  0  0  0  0  0  0  0  0  0  0
   -3.8957    7.1725  -16.6916 C   0  0  0  0  0  0  0  0  0  0  0  0
   -4.4005    7.5882  -15.3491 C   0  0  0  0  0  0  0  0  0  0  0  0
  1  2  3  0
  2  3  1  0
  3  4  2  0
  4  5  1  0
  5  6  2  0
  6  7  1  0
  6  8  1  0
  8  9  1  0
  8 10  2  0
 10 11  1  0
 11 12  1  0
 12 13  2  0
 12 14  1  0
 14 15  1  0
 15 16  2  0
 16 17  1  0
 17 18  1  0
 18 19  1  0
 16 20  1  0
 20 21  1  0
 20 22  1  0
 22 23  1  0
 23 24  1  0
 24 25  1  0
 10  3  1  0
 22 14  2  0
 25 23  1  0
 19 17  1  0
M  END
>  <name>  (1216) 
P140234

>  <alias>  (1216) 
None

>  <smina_score_min>  (1216) 
-7.004

>  <exports>  (1216) 
['/opt/xchem-fragalysis-2/maxwin/BulkDock/OUTPUTS/openbind_xx01zvns2b_c2_elabs_1LOUTNY.sdf', '/opt/xchem-fragalysis-2/maxwin/BulkDock/OUTPUTS/openbind_xx01zvns2b_c2_elabs_1LSYIIV.sdf']

>  <tags>  (1216) 
syndirella_placed,openbind_xx01zvns2b_c2_elabs,openbind_xx01zvns2b_c2_elabs_scored_6.2plus,syndirella_product,openbind_xx01zvns2b_c2_elabs_scored,openbind_xx01zvns2b_c2_elabs_scored_top80percent,BulkDock Fragalysis export

>  <subsites>  (1216) 
1 - Z4590/B/203/1

>  <smiles>  (1216) 
C#Cc1cnc(Cl)c(F)c1NC(=O)c1cc(C2CC2)n(C)c1C1CC1

>  <HIPPO Pose ID>  (1216) 
140234

>  <energy_score>  (1216) 
-30.790876

>  <inchikey>  (1216) 
SPQBLJFDDGJCPP-UHFFFAOYSA-N

>  <gnina_score_min>  (1216) 
6.418

>  <gnina_score>  (1216) 
6.34

>  <ref_mols>  (1216) 
Z1271a

>  <HIPPO Compound ID>  (1216) 
198520

>  <distance_score>  (1216) 
0.505945

>  <rmsd(smina/fragmenstein)>  (1216) 
0.499

>  <ref_pdb>  (1216) 
Z1271a

>  <inspiration_score>  (1216) 
None

$$$$
P140252
     RDKit          3D

 26 30  0  0  0  0  0  0  0  0999 V2000
   -5.5861    5.1507  -18.5388 C   0  0  0  0  0  0  0  0  0  0  0  0
   -6.3347    5.1092  -17.3041 N   0  0  0  0  0  0  0  0  0  0  0  0
   -7.6218    4.6592  -17.1965 C   0  0  0  0  0  0  0  0  0  0  0  0
   -8.4991    4.2228  -18.4010 C   0  0  0  0  0  0  0  0  0  0  0  0
   -9.9815    4.0463  -18.2826 C   0  0  0  0  0  0  0  0  0  0  0  0
   -9.0876    2.8465  -18.3974 C   0  0  0  0  0  0  0  0  0  0  0  0
   -7.9779    4.6938  -15.8668 C   0  0  0  0  0  0  0  0  0  0  0  0
   -6.8866    5.2587  -15.1291 C   0  0  0  0  0  0  0  0  0  0  0  0
   -6.8149    5.5756  -13.6846 C   0  0  0  0  0  0  0  0  0  0  0  0
   -6.1538    6.4720  -13.3315 O   0  0  0  0  0  0  0  0  0  0  0  0
   -7.7453    4.6337  -12.8767 N   0  0  0  0  0  0  0  0  0  0  0  0
   -7.9737    4.5434  -11.4919 C   0  0  0  0  0  0  0  0  0  0  0  0
   -8.3430    3.2843  -11.0163 C   0  0  0  0  0  0  0  0  0  0  0  0
   -8.4100    3.0836   -9.6515 C   0  0  0  0  0  0  0  0  0  0  0  0
   -8.1140    4.0370   -8.7502 N   0  0  0  0  0  0  0  0  0  0  0  0
   -7.7604    5.2579   -9.2171 C   0  0  0  0  0  0  0  0  0  0  0  0
   -7.7893    5.5991  -10.5772 C   0  0  0  0  0  0  0  0  0  0  0  0
   -7.6638    7.0421  -11.0024 C   0  0  0  0  0  0  0  0  0  0  0  0
   -8.5479    8.0455  -10.2481 C   0  0  0  0  0  0  0  0  0  0  0  0
   -8.0173    8.4715   -8.8867 C   0  0  0  0  0  0  0  0  0  0  0  0
   -8.0890    7.3701   -7.8393 C   0  0  0  0  0  0  0  0  0  0  0  0
   -7.2008    6.1850   -8.1685 C   0  0  0  0  0  0  0  0  0  0  0  0
   -5.8991    5.5330  -16.0747 C   0  0  0  0  0  0  0  0  0  0  0  0
   -4.4976    6.1549  -15.7720 C   0  0  0  0  0  0  0  0  0  0  0  0
   -3.9092    7.2033  -16.6858 C   0  0  0  0  0  0  0  0  0  0  0  0
   -4.4134    7.5969  -15.3364 C   0  0  0  0  0  0  0  0  0  0  0  0
  1  2  1  0
  2  3  1  0
  3  4  1  0
  4  5  1  0
  5  6  1  0
  3  7  2  0
  7  8  1  0
  8  9  1  0
  9 10  2  0
  9 11  1  0
 11 12  1  0
 12 13  2  0
 13 14  1  0
 14 15  2  0
 15 16  1  0
 16 17  2  0
 17 18  1  0
 18 19  1  0
 19 20  1  0
 20 21  1  0
 21 22  1  0
  8 23  2  0
 23 24  1  0
 24 25  1  0
 25 26  1  0
 23  2  1  0
 26 24  1  0
  6  4  1  0
 17 12  1  0
 22 16  1  0
M  END
>  <name>  (1217) 
P140252

>  <alias>  (1217) 
None

>  <smina_score_min>  (1217) 
-7.205

>  <exports>  (1217) 
['/opt/xchem-fragalysis-2/maxwin/BulkDock/OUTPUTS/openbind_xx01zvns2b_c2_elabs_1LOUTNY.sdf', '/opt/xchem-fragalysis-2/maxwin/BulkDock/OUTPUTS/openbind_xx01zvns2b_c2_elabs_1LSYIIV.sdf']

>  <tags>  (1217) 
syndirella_placed,openbind_xx01zvns2b_c2_elabs,openbind_xx01zvns2b_c2_elabs_scored_6.2plus,syndirella_product,openbind_xx01zvns2b_c2_elabs_scored,openbind_xx01zvns2b_c2_elabs_scored_top80percent,BulkDock Fragalysis export

>  <subsites>  (1217) 
1 - Z4590/B/203/1

>  <smiles>  (1217) 
Cn1c(C2CC2)cc(C(=O)Nc2ccnc3c2CCCCC3)c1C1CC1

>  <HIPPO Pose ID>  (1217) 
140252

>  <energy_score>  (1217) 
-71.05543

>  <inchikey>  (1217) 
HXSGEOORNSEJQP-UHFFFAOYSA-N

>  <gnina_score_min>  (1217) 
6.309

>  <gnina_score>  (1217) 
6.157

>  <ref_mols>  (1217) 
Z1271a

>  <HIPPO Compound ID>  (1217) 
198544

>  <distance_score>  (1217) 
0.446428

>  <rmsd(smina/fragmenstein)>  (1217) 
0.456

>  <ref_pdb>  (1217) 
Z1271a

>  <inspiration_score>  (1217) 
None

$$$$
P140253
     RDKit          3D

 26 29  0  0  0  0  0  0  0  0999 V2000
   -5.6713    5.4964  -18.4971 C   0  0  0  0  0  0  0  0  0  0  0  0
   -6.3355    5.1994  -17.2487 N   0  0  0  0  0  0  0  0  0  0  0  0
   -7.5655    4.6029  -17.1552 C   0  0  0  0  0  0  0  0  0  0  0  0
   -8.3984    4.1239  -18.3807 C   0  0  0  0  0  0  0  0  0  0  0  0
   -9.8950    4.0516  -18.3157 C   0  0  0  0  0  0  0  0  0  0  0  0
   -9.0785    2.7923  -18.3293 C   0  0  0  0  0  0  0  0  0  0  0  0
   -7.9261    4.5664  -15.8229 C   0  0  0  0  0  0  0  0  0  0  0  0
   -6.8945    5.2129  -15.0713 C   0  0  0  0  0  0  0  0  0  0  0  0
   -6.8683    5.6019  -13.6465 C   0  0  0  0  0  0  0  0  0  0  0  0
   -6.3030    6.5814  -13.3559 O   0  0  0  0  0  0  0  0  0  0  0  0
   -7.6671    4.6060  -12.7685 N   0  0  0  0  0  0  0  0  0  0  0  0
   -8.0056    4.6592  -11.4042 C   0  0  0  0  0  0  0  0  0  0  0  0
   -8.3259    3.4532  -10.7624 C   0  0  0  0  0  0  0  0  0  0  0  0
   -8.5265    3.4524   -9.3832 C   0  0  0  0  0  0  0  0  0  0  0  0
   -9.0374    2.0182   -8.4927 S   0  0  0  0  0  0  0  0  0  0  0  0
   -8.3878    4.5567   -8.6266 N   0  0  0  0  0  0  0  0  0  0  0  0
   -8.1566    5.7124   -9.2704 C   0  0  0  0  0  0  0  0  0  0  0  0
   -8.0138    5.8378  -10.6485 C   0  0  0  0  0  0  0  0  0  0  0  0
   -8.0182    7.2432  -11.1676 C   0  0  0  0  0  0  0  0  0  0  0  0
   -8.7853    8.0662  -10.3831 F   0  0  0  0  0  0  0  0  0  0  0  0
   -6.7933    7.8310  -11.1747 F   0  0  0  0  0  0  0  0  0  0  0  0
   -8.5647    7.3863  -12.4083 F   0  0  0  0  0  0  0  0  0  0  0  0
   -5.9034    5.5379  -15.9947 C   0  0  0  0  0  0  0  0  0  0  0  0
   -4.5669    6.2713  -15.6558 C   0  0  0  0  0  0  0  0  0  0  0  0
   -3.6259    5.6434  -14.6582 C   0  0  0  0  0  0  0  0  0  0  0  0
   -3.2488    5.6974  -16.1054 C   0  0  0  0  0  0  0  0  0  0  0  0
  1  2  1  0
  2  3  1  0
  3  4  1  0
  4  5  1  0
  5  6  1  0
  3  7  2  0
  7  8  1  0
  8  9  1  0
  9 10  2  0
  9 11  1  0
 11 12  1  0
 12 13  2  0
 13 14  1  0
 14 15  1  0
 14 16  2  0
 16 17  1  0
 17 18  2  0
 18 19  1  0
 19 20  1  0
 19 21  1  0
 19 22  1  0
  8 23  2  0
 23 24  1  0
 24 25  1  0
 25 26  1  0
 23  2  1  0
 26 24  1  0
  6  4  1  0
 18 12  1  0
M  END
>  <name>  (1218) 
P140253

>  <alias>  (1218) 
None

>  <smina_score_min>  (1218) 
-6.868

>  <exports>  (1218) 
['/opt/xchem-fragalysis-2/maxwin/BulkDock/OUTPUTS/openbind_xx01zvns2b_c2_elabs_1LOUTNY.sdf', '/opt/xchem-fragalysis-2/maxwin/BulkDock/OUTPUTS/openbind_xx01zvns2b_c2_elabs_1LSYIIV.sdf']

>  <tags>  (1218) 
syndirella_placed,openbind_xx01zvns2b_c2_elabs,openbind_xx01zvns2b_c2_elabs_scored_6.2plus,syndirella_product,openbind_xx01zvns2b_c2_elabs_scored,openbind_xx01zvns2b_c2_elabs_scored_top80percent,BulkDock Fragalysis export

>  <subsites>  (1218) 
1 - Z4590/B/203/1

>  <smiles>  (1218) 
Cn1c(C2CC2)cc(C(=O)Nc2cc(S)ncc2C(F)(F)F)c1C1CC1

>  <HIPPO Pose ID>  (1218) 
140253

>  <energy_score>  (1218) 
-26.389677

>  <inchikey>  (1218) 
LJWLZRJPANJYTM-UHFFFAOYSA-N

>  <gnina_score_min>  (1218) 
6.201

>  <gnina_score>  (1218) 
6.109

>  <ref_mols>  (1218) 
Z1271a

>  <HIPPO Compound ID>  (1218) 
198545

>  <distance_score>  (1218) 
0.515014

>  <rmsd(smina/fragmenstein)>  (1218) 
0.547

>  <ref_pdb>  (1218) 
Z1271a

>  <inspiration_score>  (1218) 
None

$$$$
P140270
     RDKit          3D

 27 30  0  0  0  0  0  0  0  0999 V2000
   -6.8045    9.2456  -11.1089 C   0  0  0  0  0  0  0  0  0  0  0  0
   -6.9230    7.9072  -10.6278 O   0  0  0  0  0  0  0  0  0  0  0  0
   -7.9008    7.1996  -11.2436 C   0  0  0  0  0  0  0  0  0  0  0  0
   -8.6991    7.5983  -12.0764 O   0  0  0  0  0  0  0  0  0  0  0  0
   -7.9167    5.8364  -10.7025 C   0  0  0  0  0  0  0  0  0  0  0  0
   -8.1525    5.7226   -9.3364 C   0  0  0  0  0  0  0  0  0  0  0  0
   -8.4568    4.5640   -8.7173 N   0  0  0  0  0  0  0  0  0  0  0  0
   -8.5667    3.4711   -9.5106 C   0  0  0  0  0  0  0  0  0  0  0  0
   -9.1283    2.0984   -8.6608 Cl  0  0  0  0  0  0  0  0  0  0  0  0
   -8.3263    3.4804  -10.8809 C   0  0  0  0  0  0  0  0  0  0  0  0
   -8.4374    2.3717  -11.6292 F   0  0  0  0  0  0  0  0  0  0  0  0
   -7.9558    4.6826  -11.4946 C   0  0  0  0  0  0  0  0  0  0  0  0
   -7.6190    4.6530  -12.8599 N   0  0  0  0  0  0  0  0  0  0  0  0
   -6.8381    5.6720  -13.7251 C   0  0  0  0  0  0  0  0  0  0  0  0
   -6.2872    6.6565  -13.4225 O   0  0  0  0  0  0  0  0  0  0  0  0
   -6.8641    5.2790  -15.1466 C   0  0  0  0  0  0  0  0  0  0  0  0
   -7.8975    4.6178  -15.8823 C   0  0  0  0  0  0  0  0  0  0  0  0
   -7.5417    4.6297  -17.2149 C   0  0  0  0  0  0  0  0  0  0  0  0
   -8.3804    4.1170  -18.4221 C   0  0  0  0  0  0  0  0  0  0  0  0
   -9.8782    4.0631  -18.3479 C   0  0  0  0  0  0  0  0  0  0  0  0
   -9.0753    2.7955  -18.3234 C   0  0  0  0  0  0  0  0  0  0  0  0
   -6.3150    5.2299  -17.3236 N   0  0  0  0  0  0  0  0  0  0  0  0
   -5.6576    5.5044  -18.5800 C   0  0  0  0  0  0  0  0  0  0  0  0
   -5.8768    5.5892  -16.0767 C   0  0  0  0  0  0  0  0  0  0  0  0
   -4.5365    6.3175  -15.7493 C   0  0  0  0  0  0  0  0  0  0  0  0
   -3.5965    5.6921  -14.7490 C   0  0  0  0  0  0  0  0  0  0  0  0
   -3.2244    5.7291  -16.1982 C   0  0  0  0  0  0  0  0  0  0  0  0
  1  2  1  0
  2  3  1  0
  3  4  2  0
  3  5  1  0
  5  6  2  0
  6  7  1  0
  7  8  2  0
  8  9  1  0
  8 10  1  0
 10 11  1  0
 10 12  2  0
 12 13  1  0
 13 14  1  0
 14 15  2  0
 14 16  1  0
 16 17  1  0
 17 18  2  0
 18 19  1  0
 19 20  1  0
 20 21  1  0
 18 22  1  0
 22 23  1  0
 22 24  1  0
 24 25  1  0
 25 26  1  0
 26 27  1  0
 12  5  1  0
 24 16  2  0
 27 25  1  0
 21 19  1  0
M  END
>  <name>  (1219) 
P140270

>  <alias>  (1219) 
None

>  <smina_score_min>  (1219) 
-6.966

>  <exports>  (1219) 
['/opt/xchem-fragalysis-2/maxwin/BulkDock/OUTPUTS/openbind_xx01zvns2b_c2_elabs_1LOUTNY.sdf', '/opt/xchem-fragalysis-2/maxwin/BulkDock/OUTPUTS/openbind_xx01zvns2b_c2_elabs_1LSYIIV.sdf']

>  <tags>  (1219) 
syndirella_placed,openbind_xx01zvns2b_c2_elabs,openbind_xx01zvns2b_c2_elabs_scored_6.2plus,syndirella_product,openbind_xx01zvns2b_c2_elabs_scored,openbind_xx01zvns2b_c2_elabs_scored_top80percent,BulkDock Fragalysis export

>  <subsites>  (1219) 
1 - Z4590/B/203/1

>  <smiles>  (1219) 
COC(=O)c1cnc(Cl)c(F)c1NC(=O)c1cc(C2CC2)n(C)c1C1CC1

>  <HIPPO Pose ID>  (1219) 
140270

>  <energy_score>  (1219) 
-66.933329

>  <inchikey>  (1219) 
NSQKOJFHQAUQRN-UHFFFAOYSA-N

>  <gnina_score_min>  (1219) 
6.347

>  <gnina_score>  (1219) 
6.191

>  <ref_mols>  (1219) 
Z1271a

>  <HIPPO Compound ID>  (1219) 
198569

>  <distance_score>  (1219) 
0.548928

>  <rmsd(smina/fragmenstein)>  (1219) 
0.477

>  <ref_pdb>  (1219) 
Z1271a

>  <inspiration_score>  (1219) 
None

$$$$
P140274
     RDKit          3D

 27 31  0  0  0  0  0  0  0  0999 V2000
   -8.5419    3.2818   -6.9698 C   0  0  0  0  0  0  0  0  0  0  0  0
   -8.4585    2.9660   -8.3989 N   0  0  0  0  0  0  0  0  0  0  0  0
   -9.4786    2.0269   -8.8188 C   0  0  0  0  0  0  0  0  0  0  0  0
   -8.2840    4.0757   -9.2223 C   0  0  0  0  0  0  0  0  0  0  0  0
   -8.0759    3.9547  -10.6147 C   0  0  0  0  0  0  0  0  0  0  0  0
   -7.8956    5.0972  -11.4104 C   0  0  0  0  0  0  0  0  0  0  0  0
   -7.6504    4.9667  -12.7871 N   0  0  0  0  0  0  0  0  0  0  0  0
   -7.0443    5.9689  -13.8000 C   0  0  0  0  0  0  0  0  0  0  0  0
   -6.7263    7.0841  -13.6629 O   0  0  0  0  0  0  0  0  0  0  0  0
   -6.9719    5.3904  -15.1487 C   0  0  0  0  0  0  0  0  0  0  0  0
   -8.0147    4.7238  -15.8630 C   0  0  0  0  0  0  0  0  0  0  0  0
   -7.6123    4.6163  -17.1766 C   0  0  0  0  0  0  0  0  0  0  0  0
   -8.4668    4.1633  -18.3924 C   0  0  0  0  0  0  0  0  0  0  0  0
   -9.0857    2.8019  -18.3742 C   0  0  0  0  0  0  0  0  0  0  0  0
   -9.9557    4.0228  -18.3003 C   0  0  0  0  0  0  0  0  0  0  0  0
   -6.3164    5.0505  -17.2649 N   0  0  0  0  0  0  0  0  0  0  0  0
   -5.5401    5.0580  -18.4824 C   0  0  0  0  0  0  0  0  0  0  0  0
   -5.9211    5.5452  -16.0483 C   0  0  0  0  0  0  0  0  0  0  0  0
   -4.5194    6.1436  -15.7065 C   0  0  0  0  0  0  0  0  0  0  0  0
   -3.8331    7.1002  -16.6509 C   0  0  0  0  0  0  0  0  0  0  0  0
   -4.3963    7.6061  -15.3631 C   0  0  0  0  0  0  0  0  0  0  0  0
   -7.9831    6.3219  -10.7780 C   0  0  0  0  0  0  0  0  0  0  0  0
   -8.1487    6.3493   -9.4015 C   0  0  0  0  0  0  0  0  0  0  0  0
   -8.2804    5.2809   -8.6179 N   0  0  0  0  0  0  0  0  0  0  0  0
   -8.1769    7.7514   -8.8678 C   0  0  0  0  0  0  0  0  0  0  0  0
   -8.5672    8.5153  -10.1277 C   0  0  0  0  0  0  0  0  0  0  0  0
   -7.9537    7.7249  -11.2919 C   0  0  0  0  0  0  0  0  0  0  0  0
  1  2  1  0
  2  3  1  0
  2  4  1  0
  4  5  2  0
  5  6  1  0
  6  7  1  0
  7  8  1  0
  8  9  2  0
  8 10  1  0
 10 11  1  0
 11 12  2  0
 12 13  1  0
 13 14  1  0
 14 15  1  0
 12 16  1  0
 16 17  1  0
 16 18  1  0
 18 19  1  0
 19 20  1  0
 20 21  1  0
  6 22  2  0
 22 23  1  0
 23 24  2  0
 23 25  1  0
 25 26  1  0
 26 27  1  0
 24  4  1  0
 18 10  2  0
 21 19  1  0
 27 22  1  0
 15 13  1  0
M  END
>  <name>  (1220) 
P140274

>  <alias>  (1220) 
None

>  <smina_score_min>  (1220) 
-7.127

>  <exports>  (1220) 
['/opt/xchem-fragalysis-2/maxwin/BulkDock/OUTPUTS/openbind_xx01zvns2b_c2_elabs_1LOUTNY.sdf', '/opt/xchem-fragalysis-2/maxwin/BulkDock/OUTPUTS/openbind_xx01zvns2b_c2_elabs_1LSYIIV.sdf']

>  <tags>  (1220) 
syndirella_placed,openbind_xx01zvns2b_c2_elabs,openbind_xx01zvns2b_c2_elabs_scored_6.2plus,syndirella_product,openbind_xx01zvns2b_c2_elabs_scored,openbind_xx01zvns2b_c2_elabs_scored_top80percent,BulkDock Fragalysis export

>  <subsites>  (1220) 
1 - Z4590/B/203/1

>  <smiles>  (1220) 
CN(C)c1cc(NC(=O)c2cc(C3CC3)n(C)c2C2CC2)c2c(n1)CCC2

>  <HIPPO Pose ID>  (1220) 
140274

>  <energy_score>  (1220) 
-40.851784

>  <inchikey>  (1220) 
RRCPPCBQFNGICM-UHFFFAOYSA-N

>  <gnina_score_min>  (1220) 
6.358

>  <gnina_score>  (1220) 
6.243

>  <ref_mols>  (1220) 
Z1271a

>  <HIPPO Compound ID>  (1220) 
198573

>  <distance_score>  (1220) 
0.870646

>  <rmsd(smina/fragmenstein)>  (1220) 
0.889

>  <ref_pdb>  (1220) 
Z1271a

>  <inspiration_score>  (1220) 
None

$$$$
P140285
     RDKit          3D

 28 33  0  0  0  0  0  0  0  0999 V2000
   -5.5807    5.3696  -18.7266 C   0  0  0  0  0  0  0  0  0  0  0  0
   -6.2458    5.1943  -17.4576 N   0  0  0  0  0  0  0  0  0  0  0  0
   -7.4834    4.6210  -17.3125 C   0  0  0  0  0  0  0  0  0  0  0  0
   -8.3405    4.0584  -18.4830 C   0  0  0  0  0  0  0  0  0  0  0  0
   -9.8399    4.0522  -18.3915 C   0  0  0  0  0  0  0  0  0  0  0  0
   -9.0719    2.7659  -18.3052 C   0  0  0  0  0  0  0  0  0  0  0  0
   -7.8488    4.7136  -15.9865 C   0  0  0  0  0  0  0  0  0  0  0  0
   -6.8428    5.4782  -15.3229 C   0  0  0  0  0  0  0  0  0  0  0  0
   -6.9107    6.0890  -13.9940 C   0  0  0  0  0  0  0  0  0  0  0  0
   -6.6537    7.2207  -13.8685 O   0  0  0  0  0  0  0  0  0  0  0  0
   -7.4375    5.0624  -12.9682 N   0  0  0  0  0  0  0  0  0  0  0  0
   -7.6633    5.1856  -11.5841 C   0  0  0  0  0  0  0  0  0  0  0  0
   -7.9308    6.3621  -10.8539 C   0  0  0  0  0  0  0  0  0  0  0  0
   -8.2856    6.2335   -9.4860 C   0  0  0  0  0  0  0  0  0  0  0  0
   -8.4137    5.0555   -8.8345 N   0  0  0  0  0  0  0  0  0  0  0  0
   -8.1302    3.9766   -9.5594 C   0  0  0  0  0  0  0  0  0  0  0  0
   -7.6948    3.9946  -10.8771 C   0  0  0  0  0  0  0  0  0  0  0  0
   -7.1802    2.6364  -11.2463 C   0  0  0  0  0  0  0  0  0  0  0  0
   -6.9140    2.0727   -9.8387 C   0  0  0  0  0  0  0  0  0  0  0  0
   -8.0878    2.5889   -9.0041 C   0  0  0  0  0  0  0  0  0  0  0  0
   -8.5338    7.4450   -8.6265 C   0  0  0  0  0  0  0  0  0  0  0  0
   -9.1505    8.5815   -9.4218 C   0  0  0  0  0  0  0  0  0  0  0  0
   -8.2152    8.9346  -10.5587 C   0  0  0  0  0  0  0  0  0  0  0  0
   -7.9092    7.7379  -11.4653 C   0  0  0  0  0  0  0  0  0  0  0  0
   -5.8279    5.6757  -16.2455 C   0  0  0  0  0  0  0  0  0  0  0  0
   -4.5039    6.4367  -15.9474 C   0  0  0  0  0  0  0  0  0  0  0  0
   -3.6314    5.9412  -14.8204 C   0  0  0  0  0  0  0  0  0  0  0  0
   -3.1764    5.7890  -16.2389 C   0  0  0  0  0  0  0  0  0  0  0  0
  1  2  1  0
  2  3  1  0
  3  4  1  0
  4  5  1  0
  5  6  1  0
  3  7  2  0
  7  8  1  0
  8  9  1  0
  9 10  2  0
  9 11  1  0
 11 12  1  0
 12 13  2  0
 13 14  1  0
 14 15  2  0
 15 16  1  0
 16 17  2  0
 17 18  1  0
 18 19  1  0
 19 20  1  0
 14 21  1  0
 21 22  1  0
 22 23  1  0
 23 24  1  0
  8 25  2  0
 25 26  1  0
 26 27  1  0
 27 28  1  0
 25  2  1  0
 28 26  1  0
  6  4  1  0
 17 12  1  0
 24 13  1  0
 20 16  1  0
M  END
>  <name>  (1221) 
P140285

>  <alias>  (1221) 
None

>  <smina_score_min>  (1221) 
-7.464

>  <exports>  (1221) 
['/opt/xchem-fragalysis-2/maxwin/BulkDock/OUTPUTS/openbind_xx01zvns2b_c2_elabs_1LOUTNY.sdf', '/opt/xchem-fragalysis-2/maxwin/BulkDock/OUTPUTS/openbind_xx01zvns2b_c2_elabs_1LSYIIV.sdf']

>  <tags>  (1221) 
syndirella_placed,openbind_xx01zvns2b_c2_elabs,openbind_xx01zvns2b_c2_elabs_scored_6.2plus,syndirella_product,openbind_xx01zvns2b_c2_elabs_scored,openbind_xx01zvns2b_c2_elabs_scored_top80percent,BulkDock Fragalysis export

>  <subsites>  (1221) 
1 - Z4590/B/203/1

>  <smiles>  (1221) 
Cn1c(C2CC2)cc(C(=O)Nc2c3c(nc4c2CCC4)CCCC3)c1C1CC1

>  <HIPPO Pose ID>  (1221) 
140285

>  <energy_score>  (1221) 
-18.60059

>  <inchikey>  (1221) 
VRCFBHWYLQVFCT-UHFFFAOYSA-N

>  <gnina_score_min>  (1221) 
6.443

>  <gnina_score>  (1221) 
6.394

>  <ref_mols>  (1221) 
Z1271a

>  <HIPPO Compound ID>  (1221) 
198590

>  <distance_score>  (1221) 
0.92374

>  <rmsd(smina/fragmenstein)>  (1221) 
1.111

>  <ref_pdb>  (1221) 
Z1271a

>  <inspiration_score>  (1221) 
None

$$$$
P140294
     RDKit          3D

 29 32  0  0  0  0  0  0  0  0999 V2000
   -6.4054    7.7545   -8.1398 C   0  0  0  0  0  0  0  0  0  0  0  0
   -7.8404    7.2122   -8.0913 C   0  0  0  0  0  0  0  0  0  0  0  0
   -8.1565    6.8403   -6.6334 C   0  0  0  0  0  0  0  0  0  0  0  0
   -8.0133    6.0305   -9.0453 C   0  0  0  0  0  0  0  0  0  0  0  0
   -8.2722    4.8347   -8.4575 N   0  0  0  0  0  0  0  0  0  0  0  0
   -8.3613    3.7294   -9.2213 C   0  0  0  0  0  0  0  0  0  0  0  0
   -9.0266    2.1873   -8.3417 Br  0  0  0  0  0  0  0  0  0  0  0  0
   -8.0930    3.7621  -10.5736 C   0  0  0  0  0  0  0  0  0  0  0  0
   -7.9352    2.5798  -11.3321 C   0  0  0  0  0  0  0  0  0  0  0  0
   -7.7145    1.7742  -12.1320 N   0  0  0  0  0  0  0  0  0  0  0  0
   -7.8806    5.0017  -11.2156 C   0  0  0  0  0  0  0  0  0  0  0  0
   -7.6956    4.9785  -12.6217 N   0  0  0  0  0  0  0  0  0  0  0  0
   -6.9578    5.9678  -13.5548 C   0  0  0  0  0  0  0  0  0  0  0  0
   -6.4541    6.9943  -13.3218 O   0  0  0  0  0  0  0  0  0  0  0  0
   -7.0435    5.4609  -14.9375 C   0  0  0  0  0  0  0  0  0  0  0  0
   -8.0888    4.6827  -15.5146 C   0  0  0  0  0  0  0  0  0  0  0  0
   -7.7795    4.4396  -16.8327 C   0  0  0  0  0  0  0  0  0  0  0  0
   -8.6399    3.4672  -17.6739 C   0  0  0  0  0  0  0  0  0  0  0  0
   -8.5739    3.3096  -19.1542 C   0  0  0  0  0  0  0  0  0  0  0  0
   -9.7527    3.9936  -18.5268 C   0  0  0  0  0  0  0  0  0  0  0  0
   -6.6240    5.1147  -17.1243 N   0  0  0  0  0  0  0  0  0  0  0  0
   -6.0529    5.2673  -18.4410 C   0  0  0  0  0  0  0  0  0  0  0  0
   -6.1282    5.6662  -15.9619 C   0  0  0  0  0  0  0  0  0  0  0  0
   -4.7868    6.4433  -15.7999 C   0  0  0  0  0  0  0  0  0  0  0  0
   -3.7770    5.9236  -14.8057 C   0  0  0  0  0  0  0  0  0  0  0  0
   -3.4919    5.8365  -16.2723 C   0  0  0  0  0  0  0  0  0  0  0  0
   -7.9105    6.1657  -10.4398 C   0  0  0  0  0  0  0  0  0  0  0  0
   -8.0218    7.4709  -11.0182 C   0  0  0  0  0  0  0  0  0  0  0  0
   -8.2003    8.5470  -11.4167 N   0  0  0  0  0  0  0  0  0  0  0  0
  1  2  1  0
  2  3  1  0
  2  4  1  0
  4  5  2  0
  5  6  1  0
  6  7  1  0
  6  8  2  0
  8  9  1  0
  9 10  3  0
  8 11  1  0
 11 12  1  0
 12 13  1  0
 13 14  2  0
 13 15  1  0
 15 16  1  0
 16 17  2  0
 17 18  1  0
 18 19  1  0
 19 20  1  0
 17 21  1  0
 21 22  1  0
 21 23  1  0
 23 24  1  0
 24 25  1  0
 25 26  1  0
 11 27  2  0
 27 28  1  0
 28 29  3  0
 27  4  1  0
 23 15  2  0
 26 24  1  0
 20 18  1  0
M  END
>  <name>  (1222) 
P140294

>  <alias>  (1222) 
None

>  <smina_score_min>  (1222) 
-6.069

>  <exports>  (1222) 
['/opt/xchem-fragalysis-2/maxwin/BulkDock/OUTPUTS/openbind_xx01zvns2b_c2_elabs_1LOUTNY.sdf', '/opt/xchem-fragalysis-2/maxwin/BulkDock/OUTPUTS/openbind_xx01zvns2b_c2_elabs_1LSYIIV.sdf']

>  <tags>  (1222) 
syndirella_placed,openbind_xx01zvns2b_c2_elabs,openbind_xx01zvns2b_c2_elabs_scored_6.2plus,syndirella_product,openbind_xx01zvns2b_c2_elabs_scored,openbind_xx01zvns2b_c2_elabs_scored_top80percent,BulkDock Fragalysis export

>  <subsites>  (1222) 
1 - Z4590/B/203/1

>  <smiles>  (1222) 
CC(C)c1nc(Br)c(C#N)c(NC(=O)c2cc(C3CC3)n(C)c2C2CC2)c1C#N

>  <HIPPO Pose ID>  (1222) 
140294

>  <energy_score>  (1222) 
-37.848243

>  <inchikey>  (1222) 
XJTIDUIAEQPLAC-UHFFFAOYSA-N

>  <gnina_score_min>  (1222) 
6.605

>  <gnina_score>  (1222) 
6.597

>  <ref_mols>  (1222) 
Z1271a

>  <HIPPO Compound ID>  (1222) 
198602

>  <distance_score>  (1222) 
0.813384

>  <rmsd(smina/fragmenstein)>  (1222) 
0.62

>  <ref_pdb>  (1222) 
Z1271a

>  <inspiration_score>  (1222) 
None

$$$$
P140295
     RDKit          3D

 29 33  0  0  0  0  0  0  0  0999 V2000
   -5.5577    5.1361  -18.5887 C   0  0  0  0  0  0  0  0  0  0  0  0
   -6.3036    5.1048  -17.3526 N   0  0  0  0  0  0  0  0  0  0  0  0
   -7.5889    4.6497  -17.2363 C   0  0  0  0  0  0  0  0  0  0  0  0
   -8.4710    4.1895  -18.4284 C   0  0  0  0  0  0  0  0  0  0  0  0
   -9.0894    2.8274  -18.3800 C   0  0  0  0  0  0  0  0  0  0  0  0
   -9.9576    4.0490  -18.3022 C   0  0  0  0  0  0  0  0  0  0  0  0
   -7.9443    4.7067  -15.9075 C   0  0  0  0  0  0  0  0  0  0  0  0
   -6.8595    5.3010  -15.1856 C   0  0  0  0  0  0  0  0  0  0  0  0
   -6.8161    5.6747  -13.7582 C   0  0  0  0  0  0  0  0  0  0  0  0
   -6.2480    6.6425  -13.4383 O   0  0  0  0  0  0  0  0  0  0  0  0
   -7.6718    4.6920  -12.9233 N   0  0  0  0  0  0  0  0  0  0  0  0
   -7.9213    4.6455  -11.5379 C   0  0  0  0  0  0  0  0  0  0  0  0
   -8.2977    3.3824  -11.0536 C   0  0  0  0  0  0  0  0  0  0  0  0
   -8.5441    3.2077   -9.7006 C   0  0  0  0  0  0  0  0  0  0  0  0
   -8.4899    4.2088   -8.8057 N   0  0  0  0  0  0  0  0  0  0  0  0
   -8.1452    5.4192   -9.2919 C   0  0  0  0  0  0  0  0  0  0  0  0
   -7.8491    5.7142  -10.6307 C   0  0  0  0  0  0  0  0  0  0  0  0
   -7.4707    7.1445  -10.9218 C   0  0  0  0  0  0  0  0  0  0  0  0
   -8.3987    7.9286  -11.8626 C   0  0  0  0  0  0  0  0  0  0  0  0
   -9.4151    8.8509  -11.1547 C   0  0  0  0  0  0  0  0  0  0  0  0
  -10.4154    9.3960  -12.1944 C   0  0  0  0  0  0  0  0  0  0  0  0
  -11.4526   10.3172  -11.5594 C   0  0  0  0  0  0  0  0  0  0  0  0
  -10.7910   11.4672  -10.8094 C   0  0  0  0  0  0  0  0  0  0  0  0
   -9.7783   10.9603   -9.7890 C   0  0  0  0  0  0  0  0  0  0  0  0
   -8.7452   10.0291  -10.4237 C   0  0  0  0  0  0  0  0  0  0  0  0
   -5.8681    5.5512  -16.1308 C   0  0  0  0  0  0  0  0  0  0  0  0
   -4.4670    6.1739  -15.8319 C   0  0  0  0  0  0  0  0  0  0  0  0
   -4.3776    7.6210  -15.4161 C   0  0  0  0  0  0  0  0  0  0  0  0
   -3.8722    7.2066  -16.7591 C   0  0  0  0  0  0  0  0  0  0  0  0
  1  2  1  0
  2  3  1  0
  3  4  1  0
  4  5  1  0
  5  6  1  0
  3  7  2  0
  7  8  1  0
  8  9  1  0
  9 10  2  0
  9 11  1  0
 11 12  1  0
 12 13  2  0
 13 14  1  0
 14 15  2  0
 15 16  1  0
 16 17  2  0
 17 18  1  0
 18 19  1  0
 19 20  1  0
 20 21  1  0
 21 22  1  0
 22 23  1  0
 23 24  1  0
 24 25  1  0
  8 26  2  0
 26 27  1  0
 27 28  1  0
 28 29  1  0
 26  2  1  0
 29 27  1  0
  6  4  1  0
 17 12  1  0
 25 20  1  0
M  END
>  <name>  (1223) 
P140295

>  <alias>  (1223) 
None

>  <smina_score_min>  (1223) 
-6.964

>  <exports>  (1223) 
['/opt/xchem-fragalysis-2/maxwin/BulkDock/OUTPUTS/openbind_xx01zvns2b_c2_elabs_1LOUTNY.sdf', '/opt/xchem-fragalysis-2/maxwin/BulkDock/OUTPUTS/openbind_xx01zvns2b_c2_elabs_1LSYIIV.sdf']

>  <tags>  (1223) 
syndirella_placed,openbind_xx01zvns2b_c2_elabs,openbind_xx01zvns2b_c2_elabs_scored_6.2plus,syndirella_product,openbind_xx01zvns2b_c2_elabs_scored,openbind_xx01zvns2b_c2_elabs_scored_top80percent,BulkDock Fragalysis export

>  <subsites>  (1223) 
1 - Z4590/B/203/1

>  <smiles>  (1223) 
Cn1c(C2CC2)cc(C(=O)Nc2ccncc2CCC2CCCCC2)c1C1CC1

>  <HIPPO Pose ID>  (1223) 
140295

>  <energy_score>  (1223) 
-51.429413

>  <inchikey>  (1223) 
HQGKWGIXRMMYTE-UHFFFAOYSA-N

>  <gnina_score_min>  (1223) 
6.682

>  <gnina_score>  (1223) 
6.611

>  <ref_mols>  (1223) 
Z1271a

>  <HIPPO Compound ID>  (1223) 
198603

>  <distance_score>  (1223) 
0.52192

>  <rmsd(smina/fragmenstein)>  (1223) 
0.755

>  <ref_pdb>  (1223) 
Z1271a

>  <inspiration_score>  (1223) 
None

$$$$
P140302
     RDKit          3D

 29 34  0  0  0  0  0  0  0  0999 V2000
   -5.9156    5.7677  -18.8891 C   0  0  0  0  0  0  0  0  0  0  0  0
   -6.3351    5.2873  -17.5956 N   0  0  0  0  0  0  0  0  0  0  0  0
   -7.5267    4.6545  -17.3680 C   0  0  0  0  0  0  0  0  0  0  0  0
   -8.6234    4.3349  -18.4082 C   0  0  0  0  0  0  0  0  0  0  0  0
   -9.2829    2.9876  -18.3830 C   0  0  0  0  0  0  0  0  0  0  0  0
   -8.3529    3.3491  -19.4954 C   0  0  0  0  0  0  0  0  0  0  0  0
   -7.6061    4.3531  -16.0346 C   0  0  0  0  0  0  0  0  0  0  0  0
   -6.3974    4.8024  -15.4148 C   0  0  0  0  0  0  0  0  0  0  0  0
   -6.0773    4.6665  -13.9919 C   0  0  0  0  0  0  0  0  0  0  0  0
   -5.0530    4.2744  -13.6020 O   0  0  0  0  0  0  0  0  0  0  0  0
   -7.3224    5.1298  -13.2247 N   0  0  0  0  0  0  0  0  0  0  0  0
   -7.5309    5.2916  -11.8792 C   0  0  0  0  0  0  0  0  0  0  0  0
   -7.4458    4.2835  -10.9469 C   0  0  0  0  0  0  0  0  0  0  0  0
   -7.6648    4.6003   -9.6023 C   0  0  0  0  0  0  0  0  0  0  0  0
   -7.9353    5.8188   -9.1119 N   0  0  0  0  0  0  0  0  0  0  0  0
   -7.9618    6.7663  -10.0590 C   0  0  0  0  0  0  0  0  0  0  0  0
   -7.7769    6.5629  -11.4244 C   0  0  0  0  0  0  0  0  0  0  0  0
   -7.7583    7.8512  -12.1837 C   0  0  0  0  0  0  0  0  0  0  0  0
   -7.4539    8.8362  -11.0482 C   0  0  0  0  0  0  0  0  0  0  0  0
   -8.1263    8.2371   -9.7899 C   0  0  0  0  0  0  0  0  0  0  0  0
   -9.6048    8.5840   -9.7843 C   0  0  0  0  0  0  0  0  0  0  0  0
   -7.4349    8.6992   -8.5092 C   0  0  0  0  0  0  0  0  0  0  0  0
   -7.4024    3.4278   -8.7234 C   0  0  0  0  0  0  0  0  0  0  0  0
   -7.5631    2.2996   -9.7310 C   0  0  0  0  0  0  0  0  0  0  0  0
   -7.1145    2.8396  -11.0968 C   0  0  0  0  0  0  0  0  0  0  0  0
   -5.6471    5.4089  -16.4102 C   0  0  0  0  0  0  0  0  0  0  0  0
   -4.3152    6.1919  -16.2038 C   0  0  0  0  0  0  0  0  0  0  0  0
   -3.1193    5.8448  -17.0575 C   0  0  0  0  0  0  0  0  0  0  0  0
   -3.1078    5.5345  -15.5949 C   0  0  0  0  0  0  0  0  0  0  0  0
  1  2  1  0
  2  3  1  0
  3  4  1  0
  4  5  1  0
  5  6  1  0
  3  7  2  0
  7  8  1  0
  8  9  1  0
  9 10  2  0
  9 11  1  0
 11 12  1  0
 12 13  2  0
 13 14  1  0
 14 15  2  0
 15 16  1  0
 16 17  2  0
 17 18  1  0
 18 19  1  0
 19 20  1  0
 20 21  1  0
 20 22  1  0
 14 23  1  0
 23 24  1  0
 24 25  1  0
  8 26  2  0
 26 27  1  0
 27 28  1  0
 28 29  1  0
 26  2  1  0
 29 27  1  0
  6  4  1  0
 17 12  1  0
 25 13  1  0
 20 16  1  0
M  END
>  <name>  (1224) 
P140302

>  <alias>  (1224) 
None

>  <smina_score_min>  (1224) 
-7.736

>  <exports>  (1224) 
['/opt/xchem-fragalysis-2/maxwin/BulkDock/OUTPUTS/openbind_xx01zvns2b_c2_elabs_1LOUTNY.sdf', '/opt/xchem-fragalysis-2/maxwin/BulkDock/OUTPUTS/openbind_xx01zvns2b_c2_elabs_1LSYIIV.sdf']

>  <tags>  (1224) 
syndirella_placed,openbind_xx01zvns2b_c2_elabs,openbind_xx01zvns2b_c2_elabs_scored_6.2plus,syndirella_product,openbind_xx01zvns2b_c2_elabs_scored,openbind_xx01zvns2b_c2_elabs_scored_top80percent,BulkDock Fragalysis export

>  <subsites>  (1224) 
1 - Z4590/B/203/1

>  <smiles>  (1224) 
Cn1c(C2CC2)cc(C(=O)Nc2c3c(nc4c2CCC4(C)C)CCC3)c1C1CC1

>  <HIPPO Pose ID>  (1224) 
140302

>  <energy_score>  (1224) 
-27.954482

>  <inchikey>  (1224) 
SXIIXQNKISNSMT-UHFFFAOYSA-N

>  <gnina_score_min>  (1224) 
6.443

>  <gnina_score>  (1224) 
6.537

>  <ref_mols>  (1224) 
Z1271a

>  <HIPPO Compound ID>  (1224) 
198614

>  <distance_score>  (1224) 
1.462765

>  <rmsd(smina/fragmenstein)>  (1224) 
0.699

>  <ref_pdb>  (1224) 
Z1271a

>  <inspiration_score>  (1224) 
None

$$$$
P140307
     RDKit          3D

 30 35  0  0  0  0  0  0  0  0999 V2000
   -4.9576    1.4304  -11.3420 C   0  0  0  0  0  0  0  0  0  0  0  0
   -5.6909    2.5689  -10.8092 N   0  0  0  0  0  0  0  0  0  0  0  0
   -6.2015    2.2928   -9.4643 C   0  0  0  0  0  0  0  0  0  0  0  0
   -7.5424    2.9463   -9.0806 C   0  0  0  0  0  0  0  0  0  0  0  0
   -7.7209    4.2433   -9.8030 C   0  0  0  0  0  0  0  0  0  0  0  0
   -8.2330    5.2892   -9.1208 N   0  0  0  0  0  0  0  0  0  0  0  0
   -8.4227    6.4281   -9.7945 C   0  0  0  0  0  0  0  0  0  0  0  0
   -8.8778    7.5370   -9.0955 C   0  0  0  0  0  0  0  0  0  0  0  0
   -9.1492    8.7541   -9.7227 C   0  0  0  0  0  0  0  0  0  0  0  0
   -8.9399    8.8826  -11.0866 C   0  0  0  0  0  0  0  0  0  0  0  0
   -8.4542    7.7935  -11.8091 C   0  0  0  0  0  0  0  0  0  0  0  0
   -8.1888    6.5540  -11.1805 C   0  0  0  0  0  0  0  0  0  0  0  0
   -7.6361    5.4457  -11.8524 C   0  0  0  0  0  0  0  0  0  0  0  0
   -7.4149    5.5078  -13.2279 N   0  0  0  0  0  0  0  0  0  0  0  0
   -6.1455    5.2086  -14.0540 C   0  0  0  0  0  0  0  0  0  0  0  0
   -5.0645    4.9378  -13.7082 O   0  0  0  0  0  0  0  0  0  0  0  0
   -6.4987    5.2039  -15.4743 C   0  0  0  0  0  0  0  0  0  0  0  0
   -7.6744    4.6645  -16.0822 C   0  0  0  0  0  0  0  0  0  0  0  0
   -7.5070    4.7337  -17.4472 C   0  0  0  0  0  0  0  0  0  0  0  0
   -8.4801    4.1928  -18.5312 C   0  0  0  0  0  0  0  0  0  0  0  0
   -9.9533    4.0927  -18.2724 C   0  0  0  0  0  0  0  0  0  0  0  0
   -9.1135    2.8507  -18.3235 C   0  0  0  0  0  0  0  0  0  0  0  0
   -6.2879    5.3080  -17.6965 N   0  0  0  0  0  0  0  0  0  0  0  0
   -5.7105    5.4773  -19.0075 C   0  0  0  0  0  0  0  0  0  0  0  0
   -5.6919    5.6392  -16.5091 C   0  0  0  0  0  0  0  0  0  0  0  0
   -4.3028    6.3108  -16.3223 C   0  0  0  0  0  0  0  0  0  0  0  0
   -4.0108    7.6206  -17.0079 C   0  0  0  0  0  0  0  0  0  0  0  0
   -4.2178    7.5879  -15.5249 C   0  0  0  0  0  0  0  0  0  0  0  0
   -7.3618    4.2797  -11.1467 C   0  0  0  0  0  0  0  0  0  0  0  0
   -6.7538    3.0236  -11.6992 C   0  0  0  0  0  0  0  0  0  0  0  0
  1  2  1  0
  2  3  1  0
  3  4  1  0
  4  5  1  0
  5  6  2  0
  6  7  1  0
  7  8  2  0
  8  9  1  0
  9 10  2  0
 10 11  1  0
 11 12  2  0
 12 13  1  0
 13 14  1  0
 14 15  1  0
 15 16  2  0
 15 17  1  0
 17 18  1  0
 18 19  2  0
 19 20  1  0
 20 21  1  0
 21 22  1  0
 19 23  1  0
 23 24  1  0
 23 25  1  0
 25 26  1  0
 26 27  1  0
 27 28  1  0
 13 29  2  0
 29 30  1  0
 30  2  1  0
 29  5  1  0
 12  7  1  0
 25 17  2  0
 28 26  1  0
 22 20  1  0
M  END
>  <name>  (1225) 
P140307

>  <alias>  (1225) 
None

>  <smina_score_min>  (1225) 
-7.396

>  <exports>  (1225) 
['/opt/xchem-fragalysis-2/maxwin/BulkDock/OUTPUTS/openbind_xx01zvns2b_c2_elabs_1LOUTNY.sdf', '/opt/xchem-fragalysis-2/maxwin/BulkDock/OUTPUTS/openbind_xx01zvns2b_c2_elabs_1LSYIIV.sdf']

>  <tags>  (1225) 
syndirella_placed,openbind_xx01zvns2b_c2_elabs,openbind_xx01zvns2b_c2_elabs_scored_6.2plus,syndirella_product,openbind_xx01zvns2b_c2_elabs_scored,openbind_xx01zvns2b_c2_elabs_scored_top80percent,BulkDock Fragalysis export

>  <subsites>  (1225) 
1 - Z4590/B/203/1

>  <smiles>  (1225) 
CN1CCc2nc3ccccc3c(NC(=O)c3cc(C4CC4)n(C)c3C3CC3)c2C1

>  <HIPPO Pose ID>  (1225) 
140307

>  <energy_score>  (1225) 
-42.420909

>  <inchikey>  (1225) 
ODUXWWCSAOBWIP-UHFFFAOYSA-N

>  <gnina_score_min>  (1225) 
6.559

>  <gnina_score>  (1225) 
6.532

>  <ref_mols>  (1225) 
Z1271a

>  <HIPPO Compound ID>  (1225) 
198622

>  <distance_score>  (1225) 
1.02705

>  <rmsd(smina/fragmenstein)>  (1225) 
0.958

>  <ref_pdb>  (1225) 
Z1271a

>  <inspiration_score>  (1225) 
None

$$$$
P140308
     RDKit          3D

 30 35  0  0  0  0  0  0  0  0999 V2000
   -5.5820    5.0661  -18.3214 C   0  0  0  0  0  0  0  0  0  0  0  0
   -6.2950    4.9811  -17.0644 N   0  0  0  0  0  0  0  0  0  0  0  0
   -7.6256    4.6716  -16.9666 C   0  0  0  0  0  0  0  0  0  0  0  0
   -8.5183    4.3600  -18.2065 C   0  0  0  0  0  0  0  0  0  0  0  0
   -9.0053    2.9582  -18.4157 C   0  0  0  0  0  0  0  0  0  0  0  0
   -9.9782    4.0537  -18.1041 C   0  0  0  0  0  0  0  0  0  0  0  0
   -8.0007    4.8220  -15.6477 C   0  0  0  0  0  0  0  0  0  0  0  0
   -6.8744    5.3603  -14.9341 C   0  0  0  0  0  0  0  0  0  0  0  0
   -6.9011    6.0471  -13.6295 C   0  0  0  0  0  0  0  0  0  0  0  0
   -6.5151    7.1514  -13.6066 O   0  0  0  0  0  0  0  0  0  0  0  0
   -7.5424    5.1813  -12.5092 N   0  0  0  0  0  0  0  0  0  0  0  0
   -7.9206    5.5219  -11.1809 C   0  0  0  0  0  0  0  0  0  0  0  0
   -8.1789    6.8543  -10.8215 C   0  0  0  0  0  0  0  0  0  0  0  0
   -8.3467    7.1432   -9.4689 C   0  0  0  0  0  0  0  0  0  0  0  0
   -8.4643    6.2157   -8.5118 N   0  0  0  0  0  0  0  0  0  0  0  0
   -8.3903    4.9452   -8.8611 C   0  0  0  0  0  0  0  0  0  0  0  0
   -8.6738    4.0940   -7.8135 C   0  0  0  0  0  0  0  0  0  0  0  0
   -8.5734    2.7352   -7.9648 C   0  0  0  0  0  0  0  0  0  0  0  0
   -8.0738    2.2586   -9.1583 C   0  0  0  0  0  0  0  0  0  0  0  0
   -7.8446    3.1046  -10.2495 C   0  0  0  0  0  0  0  0  0  0  0  0
   -7.2276    2.3683  -11.6666 Cl  0  0  0  0  0  0  0  0  0  0  0  0
   -8.0537    4.4994  -10.1626 C   0  0  0  0  0  0  0  0  0  0  0  0
   -8.4390    8.5824   -9.0338 C   0  0  0  0  0  0  0  0  0  0  0  0
   -9.5278    9.2757   -9.8314 C   0  0  0  0  0  0  0  0  0  0  0  0
   -9.3533    9.0873  -11.3374 C   0  0  0  0  0  0  0  0  0  0  0  0
   -8.3192    8.0254  -11.7574 C   0  0  0  0  0  0  0  0  0  0  0  0
   -5.8029    5.3290  -15.8259 C   0  0  0  0  0  0  0  0  0  0  0  0
   -4.2879    5.6473  -15.5821 C   0  0  0  0  0  0  0  0  0  0  0  0
   -3.6937    6.0903  -14.2793 C   0  0  0  0  0  0  0  0  0  0  0  0
   -3.8703    7.0794  -15.3983 C   0  0  0  0  0  0  0  0  0  0  0  0
  1  2  1  0
  2  3  1  0
  3  4  1  0
  4  5  1  0
  5  6  1  0
  3  7  2  0
  7  8  1  0
  8  9  1  0
  9 10  2  0
  9 11  1  0
 11 12  1  0
 12 13  2  0
 13 14  1  0
 14 15  2  0
 15 16  1  0
 16 17  2  0
 17 18  1  0
 18 19  2  0
 19 20  1  0
 20 21  1  0
 20 22  2  0
 14 23  1  0
 23 24  1  0
 24 25  1  0
 25 26  1  0
  8 27  2  0
 27 28  1  0
 28 29  1  0
 29 30  1  0
 27  2  1  0
 30 28  1  0
  6  4  1  0
 22 12  1  0
 26 13  1  0
 22 16  1  0
M  END
>  <name>  (1226) 
P140308

>  <alias>  (1226) 
None

>  <smina_score_min>  (1226) 
-7.523

>  <exports>  (1226) 
['/opt/xchem-fragalysis-2/maxwin/BulkDock/OUTPUTS/openbind_xx01zvns2b_c2_elabs_1LOUTNY.sdf', '/opt/xchem-fragalysis-2/maxwin/BulkDock/OUTPUTS/openbind_xx01zvns2b_c2_elabs_1LSYIIV.sdf']

>  <tags>  (1226) 
syndirella_placed,openbind_xx01zvns2b_c2_elabs,openbind_xx01zvns2b_c2_elabs_scored_6.2plus,syndirella_product,openbind_xx01zvns2b_c2_elabs_scored,openbind_xx01zvns2b_c2_elabs_scored_top80percent,BulkDock Fragalysis export

>  <subsites>  (1226) 
1 - Z4590/B/203/1

>  <smiles>  (1226) 
Cn1c(C2CC2)cc(C(=O)Nc2c3c(nc4cccc(Cl)c24)CCCC3)c1C1CC1

>  <HIPPO Pose ID>  (1226) 
140308

>  <energy_score>  (1226) 
-31.14211

>  <inchikey>  (1226) 
DFOPZFNERQGDBI-UHFFFAOYSA-N

>  <gnina_score_min>  (1226) 
6.576

>  <gnina_score>  (1226) 
6.542

>  <ref_mols>  (1226) 
Z1271a

>  <HIPPO Compound ID>  (1226) 
198623

>  <distance_score>  (1226) 
1.24018

>  <rmsd(smina/fragmenstein)>  (1226) 
1.489

>  <ref_pdb>  (1226) 
Z1271a

>  <inspiration_score>  (1226) 
None

$$$$
P141529
     RDKit          3D

 35 37  0  0  0  0  0  0  0  0999 V2000
   -8.4032    6.8208  -11.6947 C   0  0  0  0  0  0  0  0  0  0  0  0
   -7.8624    5.6532  -11.3058 C   0  0  0  0  0  0  0  0  0  0  0  0
   -6.8437    4.8602  -12.0860 C   0  0  0  0  0  0  0  0  0  0  0  0
   -7.1345    4.8027  -13.4891 N   0  0  0  0  0  0  0  0  0  0  0  0
   -6.8387    5.8013  -14.6056 C   0  0  0  0  0  0  0  0  0  0  0  0
   -6.3794    6.8688  -14.5608 O   0  0  0  0  0  0  0  0  0  0  0  0
   -7.1115    5.2284  -15.9397 C   0  0  0  0  0  0  0  0  0  0  0  0
   -8.3534    4.7734  -16.3650 C   0  0  0  0  0  0  0  0  0  0  0  0
   -8.4999    4.4283  -17.7138 C   0  0  0  0  0  0  0  0  0  0  0  0
  -10.0604    3.9898  -18.2942 Cl  0  0  0  0  0  0  0  0  0  0  0  0
   -7.4219    4.5021  -18.6126 C   0  0  0  0  0  0  0  0  0  0  0  0
   -6.1767    4.9129  -18.1545 C   0  0  0  0  0  0  0  0  0  0  0  0
   -5.0318    5.0701  -18.9290 N   0  0  0  0  0  0  0  0  0  0  0  0
   -4.8504    5.0639  -20.4421 C   0  0  0  0  0  0  0  0  0  0  0  0
   -5.6125    4.8507  -21.2911 O   0  0  0  0  0  0  0  0  0  0  0  0
   -3.5669    5.4685  -20.6021 O   0  0  0  0  0  0  0  0  0  0  0  0
   -3.2941    6.2928  -21.7375 C   0  0  0  0  0  0  0  0  0  0  0  0
   -2.6928    7.5997  -21.2446 C   0  0  0  0  0  0  0  0  0  0  0  0
   -1.9973    7.6830  -20.0246 C   0  0  0  0  0  0  0  0  0  0  0  0
   -1.4226    8.8846  -19.6037 C   0  0  0  0  0  0  0  0  0  0  0  0
   -1.5202   10.0189  -20.4037 C   0  0  0  0  0  0  0  0  0  0  0  0
   -2.1951    9.9518  -21.6212 C   0  0  0  0  0  0  0  0  0  0  0  0
   -2.7771    8.7513  -22.0398 C   0  0  0  0  0  0  0  0  0  0  0  0
   -6.0286    5.2662  -16.8173 C   0  0  0  0  0  0  0  0  0  0  0  0
   -8.2130    5.0898   -9.9903 C   0  0  0  0  0  0  0  0  0  0  0  0
   -8.0304    5.8130   -8.8083 C   0  0  0  0  0  0  0  0  0  0  0  0
   -8.2875    5.2493   -7.5532 C   0  0  0  0  0  0  0  0  0  0  0  0
   -8.6979    3.9322   -7.4371 C   0  0  0  0  0  0  0  0  0  0  0  0
   -8.8433    3.5131   -6.1476 O   0  0  0  0  0  0  0  0  0  0  0  0
   -9.9536    2.6588   -5.8805 C   0  0  0  0  0  0  0  0  0  0  0  0
   -8.7985    3.2071   -8.6171 C   0  0  0  0  0  0  0  0  0  0  0  0
   -8.7963    1.7870   -8.5602 N   0  0  0  0  0  0  0  0  0  0  0  0
   -7.6814    1.2558   -8.4992 O   0  0  0  0  0  0  0  0  0  0  0  0
   -9.8979    1.2271   -8.5077 O   0  0  0  0  0  0  0  0  0  0  0  0
   -8.6125    3.7650   -9.8844 C   0  0  0  0  0  0  0  0  0  0  0  0
  1  2  2  0
  2  3  1  0
  3  4  1  0
  4  5  1  0
  5  6  2  0
  5  7  1  0
  7  8  2  0
  8  9  1  0
  9 10  1  0
  9 11  2  0
 11 12  1  0
 12 13  1  0
 13 14  1  0
 14 15  2  0
 14 16  1  0
 16 17  1  0
 17 18  1  0
 18 19  2  0
 19 20  1  0
 20 21  2  0
 21 22  1  0
 22 23  2  0
 12 24  2  0
  2 25  1  0
 25 26  2  0
 26 27  1  0
 27 28  2  0
 28 29  1  0
 29 30  1  0
 28 31  1  0
 31 32  1  0
 32 33  2  0
 32 34  1  0
 31 35  2  0
 24  7  1  0
 35 25  1  0
 23 18  1  0
M  CHG  2  32   1  34  -1
M  END
>  <name>  (1227) 
P141529

>  <alias>  (1227) 
None

>  <smina_score_min>  (1227) 
-7.698

>  <exports>  (1227) 
['/opt/xchem-fragalysis-2/maxwin/BulkDock/OUTPUTS/openbind_xx01zvns2b_c2_elabs_1LOUTNY.sdf', '/opt/xchem-fragalysis-2/maxwin/BulkDock/OUTPUTS/openbind_xx01zvns2b_c2_elabs_1LSYIIV.sdf']

>  <tags>  (1227) 
syndirella_placed,openbind_xx01zvns2b_c2_elabs,openbind_xx01zvns2b_c2_elabs_scored_6.2plus,syndirella_product,openbind_xx01zvns2b_c2_elabs_scored,openbind_xx01zvns2b_c2_elabs_scored_top80percent,BulkDock Fragalysis export

>  <subsites>  (1227) 
1 - Z4590/B/203/1

>  <smiles>  (1227) 
C=C(CNC(=O)c1cc(Cl)cc(NC(=O)OCc2ccccc2)c1)c1ccc(OC)c([N+](=O)[O-])c1

>  <HIPPO Pose ID>  (1227) 
141529

>  <energy_score>  (1227) 
-23.166049

>  <inchikey>  (1227) 
JYWVAUGOIHBQGN-UHFFFAOYSA-N

>  <gnina_score_min>  (1227) 
6.281

>  <gnina_score>  (1227) 
5.877

>  <ref_mols>  (1227) 
Z3021a

>  <HIPPO Compound ID>  (1227) 
199056

>  <distance_score>  (1227) 
1.44975

>  <rmsd(smina/fragmenstein)>  (1227) 
1.968

>  <ref_pdb>  (1227) 
Z3021a

>  <inspiration_score>  (1227) 
None

$$$$
P141530
     RDKit          3D

 35 38  0  0  0  0  0  0  0  0999 V2000
   -9.5648    2.2330   -8.4617 C   0  0  0  0  0  0  0  0  0  0  0  0
   -8.3108    2.8851   -8.9943 C   0  0  2  0  0  0  0  0  0  0  0  0
   -8.5335    4.0928   -9.8955 C   0  0  0  0  0  0  0  0  0  0  0  0
   -8.5611    5.3935   -9.3571 C   0  0  0  0  0  0  0  0  0  0  0  0
   -8.4349    6.5059  -10.1800 C   0  0  0  0  0  0  0  0  0  0  0  0
   -8.2827    6.3296  -11.5494 C   0  0  0  0  0  0  0  0  0  0  0  0
   -8.3358    5.0498  -12.1008 C   0  0  0  0  0  0  0  0  0  0  0  0
   -8.1387    4.8572  -13.4557 N   0  0  0  0  0  0  0  0  0  0  0  0
   -7.5937    5.8099  -14.5302 C   0  0  0  0  0  0  0  0  0  0  0  0
   -7.2953    6.9343  -14.4622 O   0  0  0  0  0  0  0  0  0  0  0  0
   -7.5302    5.1611  -15.8493 C   0  0  0  0  0  0  0  0  0  0  0  0
   -8.6862    4.6653  -16.4363 C   0  0  0  0  0  0  0  0  0  0  0  0
   -8.6576    4.3507  -17.7897 C   0  0  0  0  0  0  0  0  0  0  0  0
  -10.1365    3.9223  -18.5380 Cl  0  0  0  0  0  0  0  0  0  0  0  0
   -7.4850    4.4794  -18.5420 C   0  0  0  0  0  0  0  0  0  0  0  0
   -6.3228    4.9356  -17.9264 C   0  0  0  0  0  0  0  0  0  0  0  0
   -5.1237    5.1640  -18.5926 N   0  0  0  0  0  0  0  0  0  0  0  0
   -4.7995    5.1526  -20.0837 C   0  0  0  0  0  0  0  0  0  0  0  0
   -5.4615    4.8759  -20.9965 O   0  0  0  0  0  0  0  0  0  0  0  0
   -3.5384    5.6445  -20.1369 O   0  0  0  0  0  0  0  0  0  0  0  0
   -3.1376    6.2659  -21.3612 C   0  0  0  0  0  0  0  0  0  0  0  0
   -2.5560    7.6241  -21.0177 C   0  0  0  0  0  0  0  0  0  0  0  0
   -2.6902    8.6979  -21.9083 C   0  0  0  0  0  0  0  0  0  0  0  0
   -2.1279    9.9424  -21.6106 C   0  0  0  0  0  0  0  0  0  0  0  0
   -1.4238   10.1289  -20.4222 C   0  0  0  0  0  0  0  0  0  0  0  0
   -1.2769    9.0709  -19.5300 C   0  0  0  0  0  0  0  0  0  0  0  0
   -1.8324    7.8260  -19.8293 C   0  0  0  0  0  0  0  0  0  0  0  0
   -6.3463    5.2744  -16.5745 C   0  0  0  0  0  0  0  0  0  0  0  0
   -8.5154    3.9382  -11.2893 C   0  0  0  0  0  0  0  0  0  0  0  0
   -7.4296    1.9400   -9.6554 N   0  0  0  0  0  0  0  0  0  0  0  0
   -6.1483    2.0119   -9.1886 C   0  0  0  0  0  0  0  0  0  0  0  0
   -5.2565    1.2173   -9.4379 O   0  0  0  0  0  0  0  0  0  0  0  0
   -6.0782    3.0266   -8.3015 N   0  0  0  0  0  0  0  0  0  0  0  0
   -7.3451    3.2799   -7.8679 C   0  0  0  0  0  0  0  0  0  0  0  0
   -7.6246    3.8210   -6.8048 O   0  0  0  0  0  0  0  0  0  0  0  0
  2  1  1  1
  2  3  1  0
  3  4  2  0
  4  5  1  0
  5  6  2  0
  6  7  1  0
  7  8  1  0
  8  9  1  0
  9 10  2  0
  9 11  1  0
 11 12  2  0
 12 13  1  0
 13 14  1  0
 13 15  2  0
 15 16  1  0
 16 17  1  0
 17 18  1  0
 18 19  2  0
 18 20  1  0
 20 21  1  0
 21 22  1  0
 22 23  2  0
 23 24  1  0
 24 25  2  0
 25 26  1  0
 26 27  2  0
 16 28  2  0
  7 29  2  0
  2 30  1  0
 30 31  1  0
 31 32  2  0
 31 33  1  0
 33 34  1  0
 34 35  2  0
 34  2  1  0
 29  3  1  0
 28 11  1  0
 27 22  1  0
M  END
>  <name>  (1228) 
P141530

>  <alias>  (1228) 
None

>  <smina_score_min>  (1228) 
-8.633

>  <exports>  (1228) 
['/opt/xchem-fragalysis-2/maxwin/BulkDock/OUTPUTS/openbind_xx01zvns2b_c2_elabs_1LOUTNY.sdf', '/opt/xchem-fragalysis-2/maxwin/BulkDock/OUTPUTS/openbind_xx01zvns2b_c2_elabs_1LSYIIV.sdf']

>  <tags>  (1228) 
syndirella_placed,openbind_xx01zvns2b_c2_elabs,openbind_xx01zvns2b_c2_elabs_scored_6.2plus,syndirella_product,openbind_xx01zvns2b_c2_elabs_scored,openbind_xx01zvns2b_c2_elabs_scored_top80percent,BulkDock Fragalysis export

>  <subsites>  (1228) 
1 - Z4590/B/203/1

>  <smiles>  (1228) 
C[C@]1(c2cccc(NC(=O)c3cc(Cl)cc(NC(=O)OCc4ccccc4)c3)c2)NC(=O)NC1=O

>  <HIPPO Pose ID>  (1228) 
141530

>  <energy_score>  (1228) 
-41.622044

>  <inchikey>  (1228) 
LULGCLOJNVXVFK-RUZDIDTESA-N

>  <gnina_score_min>  (1228) 
6.31

>  <gnina_score>  (1228) 
6.133

>  <ref_mols>  (1228) 
Z3021a

>  <HIPPO Compound ID>  (1228) 
163037

>  <distance_score>  (1228) 
0.784342

>  <rmsd(smina/fragmenstein)>  (1228) 
2.005

>  <ref_pdb>  (1228) 
Z3021a

>  <inspiration_score>  (1228) 
None

$$$$
P141534
     RDKit          3D

 36 39  0  0  0  0  0  0  0  0999 V2000
   -5.4862    4.8800  -20.8730 O   0  0  0  0  0  0  0  0  0  0  0  0
   -4.8283    5.1776  -19.9638 C   0  0  0  0  0  0  0  0  0  0  0  0
   -5.1537    5.2058  -18.4733 N   0  0  0  0  0  0  0  0  0  0  0  0
   -6.3504    4.9720  -17.8045 C   0  0  0  0  0  0  0  0  0  0  0  0
   -7.5108    4.5104  -18.4172 C   0  0  0  0  0  0  0  0  0  0  0  0
   -8.6784    4.3690  -17.6587 C   0  0  0  0  0  0  0  0  0  0  0  0
  -10.1506    3.9226  -18.4184 Cl  0  0  0  0  0  0  0  0  0  0  0  0
   -8.7037    4.6804  -16.3001 C   0  0  0  0  0  0  0  0  0  0  0  0
   -7.5501    5.1836  -15.7125 C   0  0  0  0  0  0  0  0  0  0  0  0
   -7.5730    5.7950  -14.3666 C   0  0  0  0  0  0  0  0  0  0  0  0
   -7.1443    6.8744  -14.2548 O   0  0  0  0  0  0  0  0  0  0  0  0
   -8.1158    4.8216  -13.3047 N   0  0  0  0  0  0  0  0  0  0  0  0
   -8.3269    4.9973  -11.9436 C   0  0  0  0  0  0  0  0  0  0  0  0
   -8.1238    6.2318  -11.3278 C   0  0  0  0  0  0  0  0  0  0  0  0
   -8.2463    6.3545   -9.9434 C   0  0  0  0  0  0  0  0  0  0  0  0
   -8.5370    5.2338   -9.1698 C   0  0  0  0  0  0  0  0  0  0  0  0
   -8.7443    3.9888   -9.7794 C   0  0  0  0  0  0  0  0  0  0  0  0
   -8.8292    2.7146   -8.9627 C   0  0  2  0  0  0  0  0  0  0  0  0
   -9.6858    2.9241   -7.8344 O   0  0  0  0  0  0  0  0  0  0  0  0
   -7.4079    2.3105   -8.4755 C   0  0  0  0  0  0  0  0  0  0  0  0
   -6.3266    2.5487   -9.4488 N   0  0  0  0  0  0  0  0  0  0  0  0
   -5.0885    3.0799   -8.9096 C   0  0  0  0  0  0  0  0  0  0  0  0
   -4.3277    3.8186  -10.0180 C   0  0  0  0  0  0  0  0  0  0  0  0
   -4.4394    3.1350  -11.3824 C   0  0  0  0  0  0  0  0  0  0  0  0
   -4.8201    1.6678  -11.2343 C   0  0  0  0  0  0  0  0  0  0  0  0
   -6.1211    1.4920  -10.4335 C   0  0  0  0  0  0  0  0  0  0  0  0
   -8.6742    3.8901  -11.1786 C   0  0  0  0  0  0  0  0  0  0  0  0
   -6.3722    5.3056  -16.4508 C   0  0  0  0  0  0  0  0  0  0  0  0
   -3.5733    5.6841  -20.0250 O   0  0  0  0  0  0  0  0  0  0  0  0
   -3.1712    6.2670  -21.2678 C   0  0  0  0  0  0  0  0  0  0  0  0
   -2.5686    7.6251  -20.9640 C   0  0  0  0  0  0  0  0  0  0  0  0
   -2.6981    8.6791  -21.8789 C   0  0  0  0  0  0  0  0  0  0  0  0
   -2.1189    9.9236  -21.6155 C   0  0  0  0  0  0  0  0  0  0  0  0
   -1.4022   10.1296  -20.4379 C   0  0  0  0  0  0  0  0  0  0  0  0
   -1.2592    9.0911  -19.5225 C   0  0  0  0  0  0  0  0  0  0  0  0
   -1.8317    7.8461  -19.7875 C   0  0  0  0  0  0  0  0  0  0  0  0
  1  2  2  0
  2  3  1  0
  3  4  1  0
  4  5  2  0
  5  6  1  0
  6  7  1  0
  6  8  2  0
  8  9  1  0
  9 10  1  0
 10 11  2  0
 10 12  1  0
 12 13  1  0
 13 14  2  0
 14 15  1  0
 15 16  2  0
 16 17  1  0
 17 18  1  0
 18 19  1  1
 18 20  1  0
 20 21  1  0
 21 22  1  0
 22 23  1  0
 23 24  1  0
 24 25  1  0
 25 26  1  0
 17 27  2  0
  9 28  2  0
  2 29  1  0
 29 30  1  0
 30 31  1  0
 31 32  2  0
 32 33  1  0
 33 34  2  0
 34 35  1  0
 35 36  2  0
 28  4  1  0
 36 31  1  0
 27 13  1  0
 26 21  1  0
M  END
>  <name>  (1229) 
P141534

>  <alias>  (1229) 
None

>  <smina_score_min>  (1229) 
-6.96

>  <exports>  (1229) 
['/opt/xchem-fragalysis-2/maxwin/BulkDock/OUTPUTS/openbind_xx01zvns2b_c2_elabs_1LOUTNY.sdf', '/opt/xchem-fragalysis-2/maxwin/BulkDock/OUTPUTS/openbind_xx01zvns2b_c2_elabs_1LSYIIV.sdf']

>  <tags>  (1229) 
syndirella_placed,openbind_xx01zvns2b_c2_elabs,openbind_xx01zvns2b_c2_elabs_scored_6.2plus,syndirella_product,openbind_xx01zvns2b_c2_elabs_scored,openbind_xx01zvns2b_c2_elabs_scored_top80percent,BulkDock Fragalysis export

>  <subsites>  (1229) 
1 - Z4590/B/203/1

>  <smiles>  (1229) 
O=C(Nc1cc(Cl)cc(C(=O)Nc2cccc([C@H](O)CN3CCCCC3)c2)c1)OCc1ccccc1

>  <HIPPO Pose ID>  (1229) 
141534

>  <energy_score>  (1229) 
-49.312357

>  <inchikey>  (1229) 
HGKPUSATLCVHHH-AREMUKBSSA-N

>  <gnina_score_min>  (1229) 
6.272

>  <gnina_score>  (1229) 
6.12

>  <ref_mols>  (1229) 
Z3021a

>  <HIPPO Compound ID>  (1229) 
199059

>  <distance_score>  (1229) 
0.686792

>  <rmsd(smina/fragmenstein)>  (1229) 
1.211

>  <ref_pdb>  (1229) 
Z3021a

>  <inspiration_score>  (1229) 
None

$$$$
P141535
     RDKit          3D

 37 40  0  0  0  0  0  0  0  0999 V2000
   -6.0852   11.0284  -12.1134 C   0  0  0  0  0  0  0  0  0  0  0  0
   -6.9941    9.9668  -12.7531 C   0  0  0  0  0  0  0  0  0  0  0  0
   -6.3576    9.5039  -14.0632 C   0  0  0  0  0  0  0  0  0  0  0  0
   -8.3809   10.5851  -12.9576 C   0  0  0  0  0  0  0  0  0  0  0  0
   -7.0022    8.8706  -11.8109 O   0  0  0  0  0  0  0  0  0  0  0  0
   -7.8111    7.7776  -11.9585 C   0  0  0  0  0  0  0  0  0  0  0  0
   -8.6943    7.7101  -12.7710 O   0  0  0  0  0  0  0  0  0  0  0  0
   -7.4323    6.8798  -10.9335 N   0  0  0  0  0  0  0  0  0  0  0  0
   -8.1762    7.2258   -9.6108 C   0  0  0  0  0  0  0  0  0  0  0  0
   -7.7658    6.3653   -8.4479 C   0  0  0  0  0  0  0  0  0  0  0  0
   -8.0244    5.1687   -9.2370 C   0  0  0  0  0  0  0  0  0  0  0  0
   -8.4182    3.9290   -8.7635 C   0  0  0  0  0  0  0  0  0  0  0  0
   -8.7769    2.9733   -9.6947 C   0  0  0  0  0  0  0  0  0  0  0  0
   -8.6863    3.2588  -11.0618 C   0  0  0  0  0  0  0  0  0  0  0  0
   -8.2112    4.4965  -11.5391 C   0  0  0  0  0  0  0  0  0  0  0  0
   -8.0413    4.5374  -12.9335 N   0  0  0  0  0  0  0  0  0  0  0  0
   -7.0996    5.2535  -13.7485 C   0  0  0  0  0  0  0  0  0  0  0  0
   -6.2649    6.0633  -13.4548 O   0  0  0  0  0  0  0  0  0  0  0  0
   -7.2101    4.9646  -15.2235 C   0  0  0  0  0  0  0  0  0  0  0  0
   -8.4030    4.6183  -15.8669 C   0  0  0  0  0  0  0  0  0  0  0  0
   -8.4150    4.4507  -17.2570 C   0  0  0  0  0  0  0  0  0  0  0  0
   -9.8880    4.0467  -18.0539 Cl  0  0  0  0  0  0  0  0  0  0  0  0
   -7.2628    4.6461  -18.0202 C   0  0  0  0  0  0  0  0  0  0  0  0
   -6.0756    4.9981  -17.3877 C   0  0  0  0  0  0  0  0  0  0  0  0
   -4.8896    5.2472  -18.0750 N   0  0  0  0  0  0  0  0  0  0  0  0
   -4.5926    5.2167  -19.4576 C   0  0  0  0  0  0  0  0  0  0  0  0
   -5.2584    4.8939  -20.3926 O   0  0  0  0  0  0  0  0  0  0  0  0
   -3.3097    5.6540  -19.5560 O   0  0  0  0  0  0  0  0  0  0  0  0
   -2.8171    5.9131  -20.8757 C   0  0  0  0  0  0  0  0  0  0  0  0
   -2.2806    7.3253  -20.8873 C   0  0  0  0  0  0  0  0  0  0  0  0
   -2.7610    8.2677  -21.8064 C   0  0  0  0  0  0  0  0  0  0  0  0
   -2.2668    9.5740  -21.8040 C   0  0  0  0  0  0  0  0  0  0  0  0
   -1.2915    9.9521  -20.8826 C   0  0  0  0  0  0  0  0  0  0  0  0
   -0.8070    9.0248  -19.9629 C   0  0  0  0  0  0  0  0  0  0  0  0
   -1.2962    7.7180  -19.9669 C   0  0  0  0  0  0  0  0  0  0  0  0
   -6.0524    5.1487  -15.9975 C   0  0  0  0  0  0  0  0  0  0  0  0
   -7.9342    5.5076  -10.5967 C   0  0  0  0  0  0  0  0  0  0  0  0
  1  2  1  0
  2  3  1  0
  2  4  1  0
  2  5  1  0
  5  6  1  0
  6  7  2  0
  6  8  1  0
  8  9  1  0
  9 10  1  0
 10 11  1  0
 11 12  2  0
 12 13  1  0
 13 14  2  0
 14 15  1  0
 15 16  1  0
 16 17  1  0
 17 18  2  0
 17 19  1  0
 19 20  2  0
 20 21  1  0
 21 22  1  0
 21 23  2  0
 23 24  1  0
 24 25  1  0
 25 26  1  0
 26 27  2  0
 26 28  1  0
 28 29  1  0
 29 30  1  0
 30 31  2  0
 31 32  1  0
 32 33  2  0
 33 34  1  0
 34 35  2  0
 24 36  2  0
 15 37  2  0
 37  8  1  0
 37 11  1  0
 36 19  1  0
 35 30  1  0
M  END
>  <name>  (1230) 
P141535

>  <alias>  (1230) 
None

>  <smina_score_min>  (1230) 
-7.775

>  <exports>  (1230) 
['/opt/xchem-fragalysis-2/maxwin/BulkDock/OUTPUTS/openbind_xx01zvns2b_c2_elabs_1LOUTNY.sdf', '/opt/xchem-fragalysis-2/maxwin/BulkDock/OUTPUTS/openbind_xx01zvns2b_c2_elabs_1LSYIIV.sdf']

>  <tags>  (1230) 
syndirella_placed,openbind_xx01zvns2b_c2_elabs,openbind_xx01zvns2b_c2_elabs_scored_6.2plus,syndirella_product,openbind_xx01zvns2b_c2_elabs_scored,openbind_xx01zvns2b_c2_elabs_scored_top80percent,BulkDock Fragalysis export

>  <subsites>  (1230) 
1 - Z4590/B/203/1

>  <smiles>  (1230) 
CC(C)(C)OC(=O)N1CCc2cccc(NC(=O)c3cc(Cl)cc(NC(=O)OCc4ccccc4)c3)c21

>  <HIPPO Pose ID>  (1230) 
141535

>  <energy_score>  (1230) 
-10.92984

>  <inchikey>  (1230) 
ZPNNXFAAMHQQFE-UHFFFAOYSA-N

>  <gnina_score_min>  (1230) 
6.552

>  <gnina_score>  (1230) 
6.271

>  <ref_mols>  (1230) 
Z3021a

>  <HIPPO Compound ID>  (1230) 
199061

>  <distance_score>  (1230) 
0.878419

>  <rmsd(smina/fragmenstein)>  (1230) 
1.887

>  <ref_pdb>  (1230) 
Z3021a

>  <inspiration_score>  (1230) 
None

$$$$
P141539
     RDKit          3D

 38 42  0  0  0  0  0  0  0  0999 V2000
   -5.5928    2.4221  -10.3516 C   0  0  0  0  0  0  0  0  0  0  0  0
   -6.9847    2.0741  -10.1021 N   0  0  0  0  0  0  0  0  0  0  0  0
   -7.9077    2.6707  -11.0809 C   0  0  0  0  0  0  0  0  0  0  0  0
   -8.1744    4.1274  -10.7959 C   0  0  0  0  0  0  0  0  0  0  0  0
   -8.0817    5.1476  -11.7508 C   0  0  0  0  0  0  0  0  0  0  0  0
   -7.8844    4.8877  -13.1100 N   0  0  0  0  0  0  0  0  0  0  0  0
   -7.5236    5.8377  -14.2692 C   0  0  0  0  0  0  0  0  0  0  0  0
   -7.2583    6.9745  -14.2614 O   0  0  0  0  0  0  0  0  0  0  0  0
   -7.4920    5.1556  -15.5807 C   0  0  0  0  0  0  0  0  0  0  0  0
   -8.6547    4.6646  -16.1657 C   0  0  0  0  0  0  0  0  0  0  0  0
   -8.6401    4.3615  -17.5292 C   0  0  0  0  0  0  0  0  0  0  0  0
  -10.1149    3.9326  -18.3018 Cl  0  0  0  0  0  0  0  0  0  0  0  0
   -7.4760    4.5050  -18.2936 C   0  0  0  0  0  0  0  0  0  0  0  0
   -6.3088    4.9552  -17.6844 C   0  0  0  0  0  0  0  0  0  0  0  0
   -5.1209    5.1988  -18.3659 N   0  0  0  0  0  0  0  0  0  0  0  0
   -4.8131    5.1815  -19.8606 C   0  0  0  0  0  0  0  0  0  0  0  0
   -5.4804    4.8867  -20.7637 O   0  0  0  0  0  0  0  0  0  0  0  0
   -3.5609    5.6942  -19.9360 O   0  0  0  0  0  0  0  0  0  0  0  0
   -3.1699    6.2594  -21.1910 C   0  0  0  0  0  0  0  0  0  0  0  0
   -2.5655    7.6224  -20.9149 C   0  0  0  0  0  0  0  0  0  0  0  0
   -2.7044    8.6617  -21.8451 C   0  0  0  0  0  0  0  0  0  0  0  0
   -2.1234    9.9104  -21.6071 C   0  0  0  0  0  0  0  0  0  0  0  0
   -1.3954   10.1351  -20.4399 C   0  0  0  0  0  0  0  0  0  0  0  0
   -1.2429    9.1111  -19.5098 C   0  0  0  0  0  0  0  0  0  0  0  0
   -1.8173    7.8620  -19.7494 C   0  0  0  0  0  0  0  0  0  0  0  0
   -6.3183    5.2765  -16.3269 C   0  0  0  0  0  0  0  0  0  0  0  0
   -8.1960    6.4751  -11.3301 C   0  0  0  0  0  0  0  0  0  0  0  0
   -8.4521    6.7872   -9.9962 C   0  0  0  0  0  0  0  0  0  0  0  0
   -8.6082    5.7742   -9.0587 C   0  0  0  0  0  0  0  0  0  0  0  0
   -8.4758    4.4392   -9.4409 C   0  0  0  0  0  0  0  0  0  0  0  0
   -8.6144    3.2491   -8.4858 C   0  0  2  0  0  0  0  0  0  0  0  0
   -8.8186    3.5783   -7.0075 C   0  0  0  0  0  0  0  0  0  0  0  0
   -7.8537    4.2666   -6.2523 C   0  0  0  0  0  0  0  0  0  0  0  0
   -8.0790    4.5739   -4.9085 C   0  0  0  0  0  0  0  0  0  0  0  0
   -9.2656    4.1836   -4.2935 C   0  0  0  0  0  0  0  0  0  0  0  0
  -10.2207    3.4778   -5.0196 C   0  0  0  0  0  0  0  0  0  0  0  0
   -9.9964    3.1737   -6.3625 C   0  0  0  0  0  0  0  0  0  0  0  0
   -7.3837    2.3289   -8.6978 C   0  0  0  0  0  0  0  0  0  0  0  0
  1  2  1  0
  2  3  1  0
  3  4  1  0
  4  5  2  0
  5  6  1  0
  6  7  1  0
  7  8  2  0
  7  9  1  0
  9 10  2  0
 10 11  1  0
 11 12  1  0
 11 13  2  0
 13 14  1  0
 14 15  1  0
 15 16  1  0
 16 17  2  0
 16 18  1  0
 18 19  1  0
 19 20  1  0
 20 21  2  0
 21 22  1  0
 22 23  2  0
 23 24  1  0
 24 25  2  0
 14 26  2  0
  5 27  1  0
 27 28  2  0
 28 29  1  0
 29 30  2  0
 30 31  1  0
 31 32  1  1
 32 33  2  0
 33 34  1  0
 34 35  2  0
 35 36  1  0
 36 37  2  0
 31 38  1  0
 38  2  1  0
 30  4  1  0
 37 32  1  0
 26  9  1  0
 25 20  1  0
M  END
>  <name>  (1231) 
P141539

>  <alias>  (1231) 
None

>  <smina_score_min>  (1231) 
-8.725

>  <exports>  (1231) 
['/opt/xchem-fragalysis-2/maxwin/BulkDock/OUTPUTS/openbind_xx01zvns2b_c2_elabs_1LOUTNY.sdf', '/opt/xchem-fragalysis-2/maxwin/BulkDock/OUTPUTS/openbind_xx01zvns2b_c2_elabs_1LSYIIV.sdf']

>  <tags>  (1231) 
syndirella_placed,openbind_xx01zvns2b_c2_elabs,openbind_xx01zvns2b_c2_elabs_scored_6.2plus,syndirella_product,openbind_xx01zvns2b_c2_elabs_scored,openbind_xx01zvns2b_c2_elabs_scored_top80percent,BulkDock Fragalysis export

>  <subsites>  (1231) 
1 - Z4590/B/203/1

>  <smiles>  (1231) 
CN1Cc2c(NC(=O)c3cc(Cl)cc(NC(=O)OCc4ccccc4)c3)cccc2[C@H](c2ccccc2)C1

>  <HIPPO Pose ID>  (1231) 
141539

>  <energy_score>  (1231) 
-42.836884

>  <inchikey>  (1231) 
UACWCOZOXWUMDF-MHZLTWQESA-N

>  <gnina_score_min>  (1231) 
6.533

>  <gnina_score>  (1231) 
6.231

>  <ref_mols>  (1231) 
Z3021a

>  <HIPPO Compound ID>  (1231) 
199068

>  <distance_score>  (1231) 
0.813127

>  <rmsd(smina/fragmenstein)>  (1231) 
1.916

>  <ref_pdb>  (1231) 
Z3021a

>  <inspiration_score>  (1231) 
None

$$$$
P141540
     RDKit          3D

 38 41  0  0  0  0  0  0  0  0999 V2000
   -2.1214    4.3986   -4.3122 C   0  0  0  0  0  0  0  0  0  0  0  0
   -1.9627    4.6995   -5.8055 C   0  0  0  0  0  0  0  0  0  0  0  0
   -0.7056    3.9801   -6.3187 C   0  0  0  0  0  0  0  0  0  0  0  0
   -1.8013    6.2037   -6.0610 C   0  0  0  0  0  0  0  0  0  0  0  0
   -3.0483    4.1522   -6.6010 O   0  0  0  0  0  0  0  0  0  0  0  0
   -4.3181    4.6349   -6.4842 C   0  0  0  0  0  0  0  0  0  0  0  0
   -4.6807    5.3271   -5.6238 O   0  0  0  0  0  0  0  0  0  0  0  0
   -5.0432    4.1507   -7.7396 N   0  0  0  0  0  0  0  0  0  0  0  0
   -6.3001    4.4779   -8.2420 C   0  0  0  0  0  0  0  0  0  0  0  0
   -7.2153    5.2257   -7.5186 C   0  0  0  0  0  0  0  0  0  0  0  0
   -8.3582    5.7151   -8.1304 C   0  0  0  0  0  0  0  0  0  0  0  0
   -8.5344    5.5295   -9.4934 C   0  0  0  0  0  0  0  0  0  0  0  0
   -7.6129    4.8118  -10.2688 C   0  0  0  0  0  0  0  0  0  0  0  0
   -7.5003    4.9924  -11.8202 C   0  0  0  0  0  0  0  0  0  0  0  0
   -8.2573    6.1416  -12.4700 C   0  0  0  0  0  0  0  0  0  0  0  0
   -8.0335    5.5166  -13.8007 N   0  0  0  0  0  0  0  0  0  0  0  0
   -6.8009    5.4478  -14.6564 C   0  0  0  0  0  0  0  0  0  0  0  0
   -5.6996    5.8063  -14.4372 O   0  0  0  0  0  0  0  0  0  0  0  0
   -7.0876    4.9244  -16.0232 C   0  0  0  0  0  0  0  0  0  0  0  0
   -8.3579    4.5991  -16.4911 C   0  0  0  0  0  0  0  0  0  0  0  0
   -8.5304    4.3521  -17.8559 C   0  0  0  0  0  0  0  0  0  0  0  0
  -10.1202    4.0408  -18.4338 Cl  0  0  0  0  0  0  0  0  0  0  0  0
   -7.4558    4.4213  -18.7547 C   0  0  0  0  0  0  0  0  0  0  0  0
   -6.1889    4.7257  -18.2790 C   0  0  0  0  0  0  0  0  0  0  0  0
   -5.0458    4.9175  -19.0506 N   0  0  0  0  0  0  0  0  0  0  0  0
   -4.8767    5.0278  -20.5611 C   0  0  0  0  0  0  0  0  0  0  0  0
   -5.6504    4.9008  -21.4168 O   0  0  0  0  0  0  0  0  0  0  0  0
   -3.5844    5.4145  -20.7048 O   0  0  0  0  0  0  0  0  0  0  0  0
   -3.2961    6.2790  -21.8067 C   0  0  0  0  0  0  0  0  0  0  0  0
   -2.7050    7.5744  -21.2713 C   0  0  0  0  0  0  0  0  0  0  0  0
   -2.0547    7.6382  -20.0259 C   0  0  0  0  0  0  0  0  0  0  0  0
   -1.4835    8.8299  -19.5722 C   0  0  0  0  0  0  0  0  0  0  0  0
   -1.5407    9.9737  -20.3630 C   0  0  0  0  0  0  0  0  0  0  0  0
   -2.1725    9.9265  -21.6042 C   0  0  0  0  0  0  0  0  0  0  0  0
   -2.7501    8.7359  -22.0559 C   0  0  0  0  0  0  0  0  0  0  0  0
   -6.0115    4.9445  -16.9156 C   0  0  0  0  0  0  0  0  0  0  0  0
   -8.1935    4.2103  -12.8997 C   0  0  0  0  0  0  0  0  0  0  0  0
   -6.5680    4.1755   -9.5756 C   0  0  0  0  0  0  0  0  0  0  0  0
  1  2  1  0
  2  3  1  0
  2  4  1  0
  2  5  1  0
  5  6  1  0
  6  7  2  0
  6  8  1  0
  8  9  1  0
  9 10  2  0
 10 11  1  0
 11 12  2  0
 12 13  1  0
 13 14  1  0
 14 15  1  0
 15 16  1  0
 16 17  1  0
 17 18  2  0
 17 19  1  0
 19 20  2  0
 20 21  1  0
 21 22  1  0
 21 23  2  0
 23 24  1  0
 24 25  1  0
 25 26  1  0
 26 27  2  0
 26 28  1  0
 28 29  1  0
 29 30  1  0
 30 31  2  0
 31 32  1  0
 32 33  2  0
 33 34  1  0
 34 35  2  0
 24 36  2  0
 16 37  1  0
 13 38  2  0
 38  9  1  0
 37 14  1  0
 36 19  1  0
 35 30  1  0
M  END
>  <name>  (1232) 
P141540

>  <alias>  (1232) 
None

>  <smina_score_min>  (1232) 
-7.123

>  <exports>  (1232) 
['/opt/xchem-fragalysis-2/maxwin/BulkDock/OUTPUTS/openbind_xx01zvns2b_c2_elabs_1LOUTNY.sdf', '/opt/xchem-fragalysis-2/maxwin/BulkDock/OUTPUTS/openbind_xx01zvns2b_c2_elabs_1LSYIIV.sdf']

>  <tags>  (1232) 
syndirella_placed,openbind_xx01zvns2b_c2_elabs,openbind_xx01zvns2b_c2_elabs_scored_6.2plus,syndirella_product,openbind_xx01zvns2b_c2_elabs_scored,openbind_xx01zvns2b_c2_elabs_scored_top80percent,BulkDock Fragalysis export

>  <subsites>  (1232) 
1 - Z4590/B/203/1

>  <smiles>  (1232) 
CC(C)(C)OC(=O)Nc1cccc(C2CN(C(=O)c3cc(Cl)cc(NC(=O)OCc4ccccc4)c3)C2)c1

>  <HIPPO Pose ID>  (1232) 
141540

>  <energy_score>  (1232) 
-16.252582

>  <inchikey>  (1232) 
UXORBTMTEPEORN-UHFFFAOYSA-N

>  <gnina_score_min>  (1232) 
6.243

>  <gnina_score>  (1232) 
5.988

>  <ref_mols>  (1232) 
Z3021a

>  <HIPPO Compound ID>  (1232) 
199069

>  <distance_score>  (1232) 
1.598893

>  <rmsd(smina/fragmenstein)>  (1232) 
2.424

>  <ref_pdb>  (1232) 
Z3021a

>  <inspiration_score>  (1232) 
None

$$$$
P141542
     RDKit          3D

 39 42  0  0  0  0  0  0  0  0999 V2000
   -3.5634    5.9910   -7.6675 C   0  0  0  0  0  0  0  0  0  0  0  0
   -4.2305    5.2210   -6.5449 C   0  0  0  0  0  0  0  0  0  0  0  0
   -5.5953    5.0009   -6.9104 O   0  0  0  0  0  0  0  0  0  0  0  0
   -6.3503    4.3505   -5.9741 C   0  0  0  0  0  0  0  0  0  0  0  0
   -5.9000    3.9311   -4.9088 O   0  0  0  0  0  0  0  0  0  0  0  0
   -7.8110    4.1838   -6.4414 C   0  0  0  0  0  0  0  0  0  0  0  0
   -8.1389    5.0458   -7.5677 N   0  0  0  0  0  0  0  0  0  0  0  0
   -8.1934    6.4458   -7.4177 C   0  0  0  0  0  0  0  0  0  0  0  0
   -8.1935    7.0351   -6.3434 O   0  0  0  0  0  0  0  0  0  0  0  0
   -8.2023    7.0626   -8.8427 C   0  0  0  0  0  0  0  0  0  0  0  0
   -9.2994    7.8361   -9.0661 F   0  0  0  0  0  0  0  0  0  0  0  0
   -7.1177    7.8652   -9.0500 F   0  0  0  0  0  0  0  0  0  0  0  0
   -8.1862    5.8372   -9.7068 C   0  0  0  0  0  0  0  0  0  0  0  0
   -8.1550    5.7739  -11.0905 C   0  0  0  0  0  0  0  0  0  0  0  0
   -8.1678    4.5197  -11.7025 C   0  0  0  0  0  0  0  0  0  0  0  0
   -8.0335    4.4299  -13.0865 N   0  0  0  0  0  0  0  0  0  0  0  0
   -7.7188    5.5180  -14.1365 C   0  0  0  0  0  0  0  0  0  0  0  0
   -7.4469    6.6457  -14.0001 O   0  0  0  0  0  0  0  0  0  0  0  0
   -7.6683    4.9922  -15.5165 C   0  0  0  0  0  0  0  0  0  0  0  0
   -8.8019    4.5046  -16.1508 C   0  0  0  0  0  0  0  0  0  0  0  0
   -8.7634    4.3153  -17.5332 C   0  0  0  0  0  0  0  0  0  0  0  0
  -10.2182    3.9124  -18.3497 Cl  0  0  0  0  0  0  0  0  0  0  0  0
   -7.5999    4.5565  -18.2721 C   0  0  0  0  0  0  0  0  0  0  0  0
   -6.4616    5.0163  -17.6199 C   0  0  0  0  0  0  0  0  0  0  0  0
   -5.2937    5.3897  -18.2763 N   0  0  0  0  0  0  0  0  0  0  0  0
   -4.8951    5.2590  -19.7441 C   0  0  0  0  0  0  0  0  0  0  0  0
   -5.5048    4.8886  -20.6601 O   0  0  0  0  0  0  0  0  0  0  0  0
   -3.6426    5.7742  -19.7837 O   0  0  0  0  0  0  0  0  0  0  0  0
   -3.1774    6.2363  -21.0559 C   0  0  0  0  0  0  0  0  0  0  0  0
   -2.5571    7.6023  -20.8410 C   0  0  0  0  0  0  0  0  0  0  0  0
   -1.7902    7.8721  -19.6947 C   0  0  0  0  0  0  0  0  0  0  0  0
   -1.2045    9.1239  -19.5024 C   0  0  0  0  0  0  0  0  0  0  0  0
   -1.3654   10.1200  -20.4611 C   0  0  0  0  0  0  0  0  0  0  0  0
   -2.1128    9.8647  -21.6097 C   0  0  0  0  0  0  0  0  0  0  0  0
   -2.7050    8.6132  -21.8006 C   0  0  0  0  0  0  0  0  0  0  0  0
   -6.4977    5.2331  -16.2424 C   0  0  0  0  0  0  0  0  0  0  0  0
   -8.2419    3.3585  -10.9168 C   0  0  0  0  0  0  0  0  0  0  0  0
   -8.2239    3.4346   -9.5107 C   0  0  0  0  0  0  0  0  0  0  0  0
   -8.1819    4.6853   -8.9220 C   0  0  0  0  0  0  0  0  0  0  0  0
  1  2  1  0
  2  3  1  0
  3  4  1  0
  4  5  2  0
  4  6  1  0
  6  7  1  0
  7  8  1  0
  8  9  2  0
  8 10  1  0
 10 11  1  0
 10 12  1  0
 10 13  1  0
 13 14  2  0
 14 15  1  0
 15 16  1  0
 16 17  1  0
 17 18  2  0
 17 19  1  0
 19 20  2  0
 20 21  1  0
 21 22  1  0
 21 23  2  0
 23 24  1  0
 24 25  1  0
 25 26  1  0
 26 27  2  0
 26 28  1  0
 28 29  1  0
 29 30  1  0
 30 31  2  0
 31 32  1  0
 32 33  2  0
 33 34  1  0
 34 35  2  0
 24 36  2  0
 15 37  2  0
 37 38  1  0
 38 39  2  0
 39  7  1  0
 39 13  1  0
 36 19  1  0
 35 30  1  0
M  END
>  <name>  (1233) 
P141542

>  <alias>  (1233) 
None

>  <smina_score_min>  (1233) 
-7.286

>  <exports>  (1233) 
['/opt/xchem-fragalysis-2/maxwin/BulkDock/OUTPUTS/openbind_xx01zvns2b_c2_elabs_1LOUTNY.sdf', '/opt/xchem-fragalysis-2/maxwin/BulkDock/OUTPUTS/openbind_xx01zvns2b_c2_elabs_1LSYIIV.sdf']

>  <tags>  (1233) 
syndirella_placed,openbind_xx01zvns2b_c2_elabs,openbind_xx01zvns2b_c2_elabs_scored_6.2plus,syndirella_product,openbind_xx01zvns2b_c2_elabs_scored,openbind_xx01zvns2b_c2_elabs_scored_top80percent,BulkDock Fragalysis export

>  <subsites>  (1233) 
1 - Z4590/B/203/1

>  <smiles>  (1233) 
CCOC(=O)CN1C(=O)C(F)(F)c2cc(NC(=O)c3cc(Cl)cc(NC(=O)OCc4ccccc4)c3)ccc21

>  <HIPPO Pose ID>  (1233) 
141542

>  <energy_score>  (1233) 
-35.041465

>  <inchikey>  (1233) 
HXOGMASZCQGJBV-UHFFFAOYSA-N

>  <gnina_score_min>  (1233) 
6.278

>  <gnina_score>  (1233) 
6.075

>  <ref_mols>  (1233) 
Z3021a

>  <HIPPO Compound ID>  (1233) 
199072

>  <distance_score>  (1233) 
0.609526

>  <rmsd(smina/fragmenstein)>  (1233) 
1.67

>  <ref_pdb>  (1233) 
Z3021a

>  <inspiration_score>  (1233) 
None

$$$$
P141543
     RDKit          3D

 40 43  0  0  0  0  0  0  0  0999 V2000
   -1.5862    4.7393   -3.1554 C   0  0  0  0  0  0  0  0  0  0  0  0
   -1.0455    5.3355   -4.4600 C   0  0  0  0  0  0  0  0  0  0  0  0
    0.2598    4.6113   -4.8245 C   0  0  0  0  0  0  0  0  0  0  0  0
   -0.7526    6.8344   -4.3305 C   0  0  0  0  0  0  0  0  0  0  0  0
   -1.9385    5.0616   -5.5720 O   0  0  0  0  0  0  0  0  0  0  0  0
   -3.2066    5.5591   -5.5962 C   0  0  0  0  0  0  0  0  0  0  0  0
   -3.6629    6.2477   -4.7365 O   0  0  0  0  0  0  0  0  0  0  0  0
   -3.7710    5.0920   -6.8054 N   0  0  0  0  0  0  0  0  0  0  0  0
   -5.0603    5.2148   -7.3224 C   0  0  0  0  0  0  0  0  0  0  0  0
   -6.0688    5.9125   -6.6636 C   0  0  0  0  0  0  0  0  0  0  0  0
   -7.3506    5.9612   -7.2108 C   0  0  0  0  0  0  0  0  0  0  0  0
   -7.6284    5.3078   -8.4128 C   0  0  0  0  0  0  0  0  0  0  0  0
   -6.6222    4.6162   -9.1093 C   0  0  0  0  0  0  0  0  0  0  0  0
   -6.9746    3.8485  -10.3754 C   0  0  2  0  0  0  0  0  0  0  0  0
   -5.8268    3.2110  -11.1435 C   0  0  0  0  0  0  0  0  0  0  0  0
   -6.4455    2.5032  -12.3314 C   0  0  0  0  0  0  0  0  0  0  0  0
   -7.7861    3.1593  -12.6967 C   0  0  0  0  0  0  0  0  0  0  0  0
   -7.6578    4.6497  -12.9067 N   0  0  0  0  0  0  0  0  0  0  0  0
   -8.5280    5.0731  -13.9500 C   0  0  0  0  0  0  0  0  0  0  0  0
   -9.6659    5.4632  -13.9102 O   0  0  0  0  0  0  0  0  0  0  0  0
   -7.9477    4.9177  -15.3150 C   0  0  0  0  0  0  0  0  0  0  0  0
   -8.8198    4.5365  -16.3381 C   0  0  0  0  0  0  0  0  0  0  0  0
   -8.3588    4.4386  -17.6412 C   0  0  0  0  0  0  0  0  0  0  0  0
   -9.4626    4.0009  -18.8769 Cl  0  0  0  0  0  0  0  0  0  0  0  0
   -7.0301    4.7200  -17.9436 C   0  0  0  0  0  0  0  0  0  0  0  0
   -6.1472    5.0872  -16.9236 C   0  0  0  0  0  0  0  0  0  0  0  0
   -4.8117    5.3929  -17.1870 N   0  0  0  0  0  0  0  0  0  0  0  0
   -4.0860    5.4207  -18.4038 C   0  0  0  0  0  0  0  0  0  0  0  0
   -4.4449    5.2661  -19.5314 O   0  0  0  0  0  0  0  0  0  0  0  0
   -2.7989    5.7218  -18.0678 O   0  0  0  0  0  0  0  0  0  0  0  0
   -1.9006    5.8724  -19.1742 C   0  0  0  0  0  0  0  0  0  0  0  0
   -1.8354    7.3177  -19.6000 C   0  0  0  0  0  0  0  0  0  0  0  0
   -2.4993    7.7557  -20.7543 C   0  0  0  0  0  0  0  0  0  0  0  0
   -2.4353    9.0953  -21.1425 C   0  0  0  0  0  0  0  0  0  0  0  0
   -1.7166   10.0106  -20.3759 C   0  0  0  0  0  0  0  0  0  0  0  0
   -1.0678    9.5895  -19.2169 C   0  0  0  0  0  0  0  0  0  0  0  0
   -1.1293    8.2506  -18.8284 C   0  0  0  0  0  0  0  0  0  0  0  0
   -6.6037    5.1773  -15.6015 C   0  0  0  0  0  0  0  0  0  0  0  0
   -7.8421    4.6593  -11.3921 C   0  0  0  0  0  0  0  0  0  0  0  0
   -5.3373    4.5824   -8.5422 C   0  0  0  0  0  0  0  0  0  0  0  0
  1  2  1  0
  2  3  1  0
  2  4  1  0
  2  5  1  0
  5  6  1  0
  6  7  2  0
  6  8  1  0
  8  9  1  0
  9 10  2  0
 10 11  1  0
 11 12  2  0
 12 13  1  0
 14 13  1  1
 14 15  1  0
 15 16  1  0
 16 17  1  0
 17 18  1  0
 18 19  1  0
 19 20  2  0
 19 21  1  0
 21 22  2  0
 22 23  1  0
 23 24  1  0
 23 25  2  0
 25 26  1  0
 26 27  1  0
 27 28  1  0
 28 29  2  0
 28 30  1  0
 30 31  1  0
 31 32  1  0
 32 33  2  0
 33 34  1  0
 34 35  2  0
 35 36  1  0
 36 37  2  0
 26 38  2  0
 18 39  1  0
 13 40  2  0
 40  9  1  0
 39 14  1  0
 38 21  1  0
 37 32  1  0
M  END
>  <name>  (1234) 
P141543

>  <alias>  (1234) 
None

>  <smina_score_min>  (1234) 
-6.893

>  <exports>  (1234) 
['/opt/xchem-fragalysis-2/maxwin/BulkDock/OUTPUTS/openbind_xx01zvns2b_c2_elabs_1LOUTNY.sdf', '/opt/xchem-fragalysis-2/maxwin/BulkDock/OUTPUTS/openbind_xx01zvns2b_c2_elabs_1LSYIIV.sdf']

>  <tags>  (1234) 
syndirella_placed,openbind_xx01zvns2b_c2_elabs,openbind_xx01zvns2b_c2_elabs_scored_6.2plus,syndirella_product,openbind_xx01zvns2b_c2_elabs_scored,openbind_xx01zvns2b_c2_elabs_scored_top80percent,BulkDock Fragalysis export

>  <subsites>  (1234) 
1 - Z4590/B/203/1

>  <smiles>  (1234) 
CC(C)(C)OC(=O)Nc1cccc([C@@H]2CCCN(C(=O)c3cc(Cl)cc(NC(=O)OCc4ccccc4)c3)C2)c1

>  <HIPPO Pose ID>  (1234) 
141543

>  <energy_score>  (1234) 
-31.080406

>  <inchikey>  (1234) 
YGJMOLUWXACAGU-HSZRJFAPSA-N

>  <gnina_score_min>  (1234) 
6.414

>  <gnina_score>  (1234) 
6.119

>  <ref_mols>  (1234) 
Z3021a

>  <HIPPO Compound ID>  (1234) 
199073

>  <distance_score>  (1234) 
1.716064

>  <rmsd(smina/fragmenstein)>  (1234) 
2.363

>  <ref_pdb>  (1234) 
Z3021a

>  <inspiration_score>  (1234) 
None

$$$$
P142160
     RDKit          3D

 31 35  0  0  0  0  0  0  0  0999 V2000
   -0.2657    9.2047  -16.2895 C   0  0  0  0  0  0  0  0  0  0  0  0
   -0.2880    7.9731  -17.1882 C   0  0  0  0  0  0  0  0  0  0  0  0
   -1.6027    7.3222  -17.2319 N   0  0  0  0  0  0  0  0  0  0  0  0
   -1.4776    5.9662  -17.8075 C   0  0  0  0  0  0  0  0  0  0  0  0
   -2.7989    5.3760  -18.3188 C   0  0  0  0  0  0  0  0  0  0  0  0
   -3.9798    5.9728  -17.5621 C   0  0  0  0  0  0  0  0  0  0  0  0
   -5.3066    5.3613  -17.9098 C   0  0  0  0  0  0  0  0  0  0  0  0
   -5.8250    5.0673  -19.1535 C   0  0  0  0  0  0  0  0  0  0  0  0
   -7.0857    4.5447  -18.9914 N   0  0  0  0  0  0  0  0  0  0  0  0
   -7.4030    4.4862  -17.6527 C   0  0  0  0  0  0  0  0  0  0  0  0
   -8.5659    4.0467  -17.0039 C   0  0  0  0  0  0  0  0  0  0  0  0
   -8.6443    4.2321  -15.6163 C   0  0  0  0  0  0  0  0  0  0  0  0
   -7.5919    4.8216  -14.9193 C   0  0  0  0  0  0  0  0  0  0  0  0
   -7.7324    5.2745  -13.5174 C   0  0  0  0  0  0  0  0  0  0  0  0
   -7.5739    6.4112  -13.3024 O   0  0  0  0  0  0  0  0  0  0  0  0
   -8.0647    4.1124  -12.5590 N   0  0  0  0  0  0  0  0  0  0  0  0
   -8.1746    4.0877  -11.1705 C   0  0  0  0  0  0  0  0  0  0  0  0
   -7.9496    5.2643  -10.4268 C   0  0  0  0  0  0  0  0  0  0  0  0
   -8.1031    5.2816   -9.0409 C   0  0  0  0  0  0  0  0  0  0  0  0
   -8.4786    4.1021   -8.4358 C   0  0  0  0  0  0  0  0  0  0  0  0
   -8.6876    2.9232   -9.1482 C   0  0  0  0  0  0  0  0  0  0  0  0
   -8.5296    2.8972  -10.5260 C   0  0  0  0  0  0  0  0  0  0  0  0
   -9.1509    1.8534   -8.2173 C   0  0  0  0  0  0  0  0  0  0  0  0
   -9.2608    2.5602   -6.9488 N   0  0  0  0  0  0  0  0  0  0  0  0
  -10.1326    2.0897   -5.9032 C   0  0  0  0  0  0  0  0  0  0  0  0
   -8.8690    3.8818   -7.0401 C   0  0  0  0  0  0  0  0  0  0  0  0
   -8.9076    4.7554   -6.1918 O   0  0  0  0  0  0  0  0  0  0  0  0
   -6.4110    5.1843  -15.5695 C   0  0  0  0  0  0  0  0  0  0  0  0
   -6.3180    5.0221  -16.9614 C   0  0  0  0  0  0  0  0  0  0  0  0
   -4.0060    7.5028  -17.7148 C   0  0  0  0  0  0  0  0  0  0  0  0
   -2.6137    8.0971  -17.9509 C   0  0  0  0  0  0  0  0  0  0  0  0
  1  2  1  0
  2  3  1  0
  3  4  1  0
  4  5  1  0
  5  6  1  0
  6  7  1  0
  7  8  2  0
  8  9  1  0
  9 10  1  0
 10 11  2  0
 11 12  1  0
 12 13  2  0
 13 14  1  0
 14 15  2  0
 14 16  1  0
 16 17  1  0
 17 18  2  0
 18 19  1  0
 19 20  2  0
 20 21  1  0
 21 22  2  0
 21 23  1  0
 23 24  1  0
 24 25  1  0
 24 26  1  0
 26 27  2  0
 13 28  1  0
 28 29  2  0
  6 30  1  0
 30 31  1  0
 31  3  1  0
 29  7  1  0
 29 10  1  0
 22 17  1  0
 26 20  1  0
M  END
>  <name>  (1235) 
P142160

>  <alias>  (1235) 
None

>  <smina_score_min>  (1235) 
-10.605

>  <exports>  (1235) 
['/opt/xchem-fragalysis-2/maxwin/BulkDock/OUTPUTS/openbind_xx01zvns2b_c2_elabs_1LOUTNY.sdf', '/opt/xchem-fragalysis-2/maxwin/BulkDock/OUTPUTS/openbind_xx01zvns2b_c2_elabs_1LSYIIV.sdf']

>  <tags>  (1235) 
syndirella_placed,openbind_xx01zvns2b_c2_elabs,openbind_xx01zvns2b_c2_elabs_scored_6.2plus,syndirella_product,openbind_xx01zvns2b_c2_elabs_scored,openbind_xx01zvns2b_c2_elabs_scored_top80percent,BulkDock Fragalysis export

>  <subsites>  (1235) 
1 - Z4590/B/203/1

>  <smiles>  (1235) 
CCN1CCC(c2c[nH]c3ccc(C(=O)Nc4ccc5c(c4)CN(C)C5=O)cc23)CC1

>  <HIPPO Pose ID>  (1235) 
142160

>  <energy_score>  (1235) 
-51.423279

>  <inchikey>  (1235) 
HSBAYFRXHLKIGB-UHFFFAOYSA-N

>  <gnina_score_min>  (1235) 
6.283

>  <gnina_score>  (1235) 
6.068

>  <ref_mols>  (1235) 
Z4161a

>  <HIPPO Compound ID>  (1235) 
199774

>  <distance_score>  (1235) 
0.509014

>  <rmsd(smina/fragmenstein)>  (1235) 
0.993

>  <ref_pdb>  (1235) 
Z4161a

>  <inspiration_score>  (1235) 
None

$$$$
P142163
     RDKit          3D

 31 35  0  0  0  0  0  0  0  0999 V2000
   -0.2107    9.1279  -16.3569 C   0  0  0  0  0  0  0  0  0  0  0  0
   -0.2685    7.8638  -17.2088 C   0  0  0  0  0  0  0  0  0  0  0  0
   -1.6000    7.2467  -17.2279 N   0  0  0  0  0  0  0  0  0  0  0  0
   -2.6209    8.1292  -17.8199 C   0  0  0  0  0  0  0  0  0  0  0  0
   -3.8618    7.3888  -18.3381 C   0  0  0  0  0  0  0  0  0  0  0  0
   -4.0876    6.1087  -17.5391 C   0  0  0  0  0  0  0  0  0  0  0  0
   -5.3852    5.4246  -17.8623 C   0  0  0  0  0  0  0  0  0  0  0  0
   -5.9020    5.0919  -19.0970 C   0  0  0  0  0  0  0  0  0  0  0  0
   -7.1441    4.5304  -18.9169 N   0  0  0  0  0  0  0  0  0  0  0  0
   -7.4466    4.4755  -17.5743 C   0  0  0  0  0  0  0  0  0  0  0  0
   -8.5953    4.0238  -16.9065 C   0  0  0  0  0  0  0  0  0  0  0  0
   -8.6600    4.2095  -15.5156 C   0  0  0  0  0  0  0  0  0  0  0  0
   -7.6043    4.8007  -14.8281 C   0  0  0  0  0  0  0  0  0  0  0  0
   -7.7131    5.2735  -13.4251 C   0  0  0  0  0  0  0  0  0  0  0  0
   -7.3685    6.3730  -13.2256 O   0  0  0  0  0  0  0  0  0  0  0  0
   -8.2051    4.1836  -12.4441 N   0  0  0  0  0  0  0  0  0  0  0  0
   -8.2834    4.1868  -11.0492 C   0  0  0  0  0  0  0  0  0  0  0  0
   -7.9153    5.3540  -10.3545 C   0  0  0  0  0  0  0  0  0  0  0  0
   -7.9005    5.3952   -8.9634 C   0  0  0  0  0  0  0  0  0  0  0  0
   -8.2836    4.2610   -8.2813 C   0  0  0  0  0  0  0  0  0  0  0  0
   -8.6961    3.1137   -8.9496 C   0  0  0  0  0  0  0  0  0  0  0  0
   -8.6859    3.0490  -10.3408 C   0  0  0  0  0  0  0  0  0  0  0  0
   -9.1005    2.0862   -7.9338 C   0  0  0  0  0  0  0  0  0  0  0  0
   -8.9939    2.7484   -6.5931 N   0  0  0  0  0  0  0  0  0  0  0  0
  -10.2781    2.9779   -5.9340 C   0  0  0  0  0  0  0  0  0  0  0  0
  -10.9888    1.7160   -5.5006 C   0  0  0  0  0  0  0  0  0  0  0  0
   -8.2995    4.0324   -6.8114 C   0  0  0  0  0  0  0  0  0  0  0  0
   -6.4357    5.1704  -15.5030 C   0  0  0  0  0  0  0  0  0  0  0  0
   -6.3625    5.0305  -16.8984 C   0  0  0  0  0  0  0  0  0  0  0  0
   -2.8751    5.1763  -17.6555 C   0  0  0  0  0  0  0  0  0  0  0  0
   -1.5706    5.9426  -17.9017 C   0  0  0  0  0  0  0  0  0  0  0  0
  1  2  1  0
  2  3  1  0
  3  4  1  0
  4  5  1  0
  5  6  1  0
  6  7  1  0
  7  8  2  0
  8  9  1  0
  9 10  1  0
 10 11  2  0
 11 12  1  0
 12 13  2  0
 13 14  1  0
 14 15  2  0
 14 16  1  0
 16 17  1  0
 17 18  2  0
 18 19  1  0
 19 20  2  0
 20 21  1  0
 21 22  2  0
 21 23  1  0
 23 24  1  0
 24 25  1  0
 25 26  1  0
 24 27  1  0
 13 28  1  0
 28 29  2  0
  6 30  1  0
 30 31  1  0
 31  3  1  0
 29  7  1  0
 29 10  1  0
 22 17  1  0
 27 20  1  0
M  END
>  <name>  (1236) 
P142163

>  <alias>  (1236) 
None

>  <smina_score_min>  (1236) 
-10.104

>  <exports>  (1236) 
['/opt/xchem-fragalysis-2/maxwin/BulkDock/OUTPUTS/openbind_xx01zvns2b_c2_elabs_1LOUTNY.sdf', '/opt/xchem-fragalysis-2/maxwin/BulkDock/OUTPUTS/openbind_xx01zvns2b_c2_elabs_1LSYIIV.sdf']

>  <tags>  (1236) 
syndirella_placed,openbind_xx01zvns2b_c2_elabs,openbind_xx01zvns2b_c2_elabs_scored_6.2plus,syndirella_product,openbind_xx01zvns2b_c2_elabs_scored,openbind_xx01zvns2b_c2_elabs_scored_top80percent,BulkDock Fragalysis export

>  <subsites>  (1236) 
1 - Z4590/B/203/1

>  <smiles>  (1236) 
CCN1CCC(c2c[nH]c3ccc(C(=O)Nc4ccc5c(c4)CN(CC)C5)cc23)CC1

>  <HIPPO Pose ID>  (1236) 
142163

>  <energy_score>  (1236) 
-33.587604

>  <inchikey>  (1236) 
HZRANPVTZZODLC-UHFFFAOYSA-N

>  <gnina_score_min>  (1236) 
6.29

>  <gnina_score>  (1236) 
6.098

>  <ref_mols>  (1236) 
Z4161a

>  <HIPPO Compound ID>  (1236) 
199779

>  <distance_score>  (1236) 
0.525221

>  <rmsd(smina/fragmenstein)>  (1236) 
1.111

>  <ref_pdb>  (1236) 
Z4161a

>  <inspiration_score>  (1236) 
None

$$$$
P142164
     RDKit          3D

 32 36  0  0  0  0  0  0  0  0999 V2000
   -0.3046    9.3184  -16.2108 C   0  0  0  0  0  0  0  0  0  0  0  0
   -0.3457    7.9909  -16.9591 C   0  0  0  0  0  0  0  0  0  0  0  0
   -1.6747    7.3558  -16.9504 N   0  0  0  0  0  0  0  0  0  0  0  0
   -2.6631    8.1378  -17.7085 C   0  0  0  0  0  0  0  0  0  0  0  0
   -4.0387    7.4697  -17.7091 C   0  0  0  0  0  0  0  0  0  0  0  0
   -3.9440    6.0440  -18.2582 C   0  0  0  0  0  0  0  0  0  0  0  0
   -5.2792    5.3609  -18.3442 C   0  0  0  0  0  0  0  0  0  0  0  0
   -5.8718    4.9526  -19.5193 C   0  0  0  0  0  0  0  0  0  0  0  0
   -7.1041    4.4275  -19.2372 N   0  0  0  0  0  0  0  0  0  0  0  0
   -7.3321    4.4590  -17.8844 C   0  0  0  0  0  0  0  0  0  0  0  0
   -8.4572    4.0523  -17.1545 C   0  0  0  0  0  0  0  0  0  0  0  0
   -8.4581    4.3046  -15.7824 C   0  0  0  0  0  0  0  0  0  0  0  0
   -7.3553    4.9131  -15.1814 C   0  0  0  0  0  0  0  0  0  0  0  0
   -7.4172    5.3919  -13.7849 C   0  0  0  0  0  0  0  0  0  0  0  0
   -7.0997    6.4930  -13.5653 O   0  0  0  0  0  0  0  0  0  0  0  0
   -7.9438    4.2967  -12.8383 N   0  0  0  0  0  0  0  0  0  0  0  0
   -8.0959    4.2940  -11.4599 C   0  0  0  0  0  0  0  0  0  0  0  0
   -7.8906    5.4843  -10.7326 C   0  0  0  0  0  0  0  0  0  0  0  0
   -8.0486    5.5156   -9.3526 C   0  0  0  0  0  0  0  0  0  0  0  0
   -8.4104    4.3354   -8.7476 C   0  0  0  0  0  0  0  0  0  0  0  0
   -8.6153    3.1444   -9.4474 C   0  0  0  0  0  0  0  0  0  0  0  0
   -8.4614    3.1070  -10.8185 C   0  0  0  0  0  0  0  0  0  0  0  0
   -9.0056    2.0618   -8.5032 C   0  0  0  0  0  0  0  0  0  0  0  0
   -9.0611    2.7839   -7.2445 N   0  0  0  0  0  0  0  0  0  0  0  0
   -9.3348    2.1263   -6.0069 C   0  0  0  0  0  0  0  0  0  0  0  0
  -10.8017    2.1225   -5.6557 C   0  0  0  0  0  0  0  0  0  0  0  0
   -8.6830    4.1011   -7.3345 C   0  0  0  0  0  0  0  0  0  0  0  0
   -8.5883    4.9406   -6.4583 O   0  0  0  0  0  0  0  0  0  0  0  0
   -6.2106    5.2496  -15.9122 C   0  0  0  0  0  0  0  0  0  0  0  0
   -6.2048    5.0417  -17.2997 C   0  0  0  0  0  0  0  0  0  0  0  0
   -2.8999    5.2502  -17.4746 C   0  0  0  0  0  0  0  0  0  0  0  0
   -1.5612    5.9871  -17.4885 C   0  0  0  0  0  0  0  0  0  0  0  0
  1  2  1  0
  2  3  1  0
  3  4  1  0
  4  5  1  0
  5  6  1  0
  6  7  1  0
  7  8  2  0
  8  9  1  0
  9 10  1  0
 10 11  2  0
 11 12  1  0
 12 13  2  0
 13 14  1  0
 14 15  2  0
 14 16  1  0
 16 17  1  0
 17 18  2  0
 18 19  1  0
 19 20  2  0
 20 21  1  0
 21 22  2  0
 21 23  1  0
 23 24  1  0
 24 25  1  0
 25 26  1  0
 24 27  1  0
 27 28  2  0
 13 29  1  0
 29 30  2  0
  6 31  1  0
 31 32  1  0
 32  3  1  0
 30  7  1  0
 30 10  1  0
 22 17  1  0
 27 20  1  0
M  END
>  <name>  (1237) 
P142164

>  <alias>  (1237) 
None

>  <smina_score_min>  (1237) 
-9.382

>  <exports>  (1237) 
['/opt/xchem-fragalysis-2/maxwin/BulkDock/OUTPUTS/openbind_xx01zvns2b_c2_elabs_1LOUTNY.sdf', '/opt/xchem-fragalysis-2/maxwin/BulkDock/OUTPUTS/openbind_xx01zvns2b_c2_elabs_1LSYIIV.sdf']

>  <tags>  (1237) 
syndirella_placed,openbind_xx01zvns2b_c2_elabs,openbind_xx01zvns2b_c2_elabs_scored_6.2plus,syndirella_product,openbind_xx01zvns2b_c2_elabs_scored,openbind_xx01zvns2b_c2_elabs_scored_top80percent,BulkDock Fragalysis export

>  <subsites>  (1237) 
1 - Z4590/B/203/1

>  <smiles>  (1237) 
CCN1CCC(c2c[nH]c3ccc(C(=O)Nc4ccc5c(c4)CN(CC)C5=O)cc23)CC1

>  <HIPPO Pose ID>  (1237) 
142164

>  <energy_score>  (1237) 
-30.845878

>  <inchikey>  (1237) 
GTBWZGJHWGKERJ-UHFFFAOYSA-N

>  <gnina_score_min>  (1237) 
6.258

>  <gnina_score>  (1237) 
6.158

>  <ref_mols>  (1237) 
Z4161a

>  <HIPPO Compound ID>  (1237) 
199781

>  <distance_score>  (1237) 
0.555968

>  <rmsd(smina/fragmenstein)>  (1237) 
0.792

>  <ref_pdb>  (1237) 
Z4161a

>  <inspiration_score>  (1237) 
None

$$$$
P142166
     RDKit          3D

 32 36  0  0  0  0  0  0  0  0999 V2000
   -9.1898    3.8372   -2.9480 C   0  0  0  0  0  0  0  0  0  0  0  0
   -8.5575    3.9231   -4.3190 C   0  0  0  0  0  0  0  0  0  0  0  0
   -9.3626    3.2475   -5.4537 C   0  0  0  0  0  0  0  0  0  0  0  0
   -8.5779    3.3587   -6.6757 N   0  0  0  0  0  0  0  0  0  0  0  0
   -8.4002    4.7514   -7.0788 C   0  0  0  0  0  0  0  0  0  0  0  0
   -8.3015    4.7140   -8.5511 C   0  0  0  0  0  0  0  0  0  0  0  0
   -7.9722    5.7704   -9.3634 C   0  0  0  0  0  0  0  0  0  0  0  0
   -7.9693    5.5387  -10.7235 C   0  0  0  0  0  0  0  0  0  0  0  0
   -8.2800    4.2724  -11.2581 C   0  0  0  0  0  0  0  0  0  0  0  0
   -8.2106    4.1539  -12.6453 N   0  0  0  0  0  0  0  0  0  0  0  0
   -7.9891    5.2270  -13.7339 C   0  0  0  0  0  0  0  0  0  0  0  0
   -7.9067    6.3898  -13.6461 O   0  0  0  0  0  0  0  0  0  0  0  0
   -7.7485    4.6785  -15.0785 C   0  0  0  0  0  0  0  0  0  0  0  0
   -8.7608    4.0938  -15.8279 C   0  0  0  0  0  0  0  0  0  0  0  0
   -8.6108    3.9357  -17.2118 C   0  0  0  0  0  0  0  0  0  0  0  0
   -7.4309    4.4168  -17.8001 C   0  0  0  0  0  0  0  0  0  0  0  0
   -7.0617    4.5168  -19.1215 N   0  0  0  0  0  0  0  0  0  0  0  0
   -5.8177    5.0923  -19.2225 C   0  0  0  0  0  0  0  0  0  0  0  0
   -5.3667    5.3937  -17.9547 C   0  0  0  0  0  0  0  0  0  0  0  0
   -4.0938    6.0857  -17.5554 C   0  0  0  0  0  0  0  0  0  0  0  0
   -3.8581    7.3888  -18.3149 C   0  0  0  0  0  0  0  0  0  0  0  0
   -2.6369    8.1280  -17.7530 C   0  0  0  0  0  0  0  0  0  0  0  0
   -1.6061    7.2430  -17.1841 N   0  0  0  0  0  0  0  0  0  0  0  0
   -0.2793    7.8707  -17.1614 C   0  0  0  0  0  0  0  0  0  0  0  0
   -0.2286    9.1259  -16.2960 C   0  0  0  0  0  0  0  0  0  0  0  0
   -1.5676    5.9514  -17.8806 C   0  0  0  0  0  0  0  0  0  0  0  0
   -2.8655    5.1709  -17.6489 C   0  0  0  0  0  0  0  0  0  0  0  0
   -6.3872    4.9607  -17.0542 C   0  0  0  0  0  0  0  0  0  0  0  0
   -6.5375    5.0640  -15.6641 C   0  0  0  0  0  0  0  0  0  0  0  0
   -8.6154    3.2041  -10.4119 C   0  0  0  0  0  0  0  0  0  0  0  0
   -8.6386    3.4506   -9.0410 C   0  0  0  0  0  0  0  0  0  0  0  0
   -9.0374    2.5900   -7.8658 C   0  0  0  0  0  0  0  0  0  0  0  0
  1  2  1  0
  2  3  1  0
  3  4  1  0
  4  5  1  0
  5  6  1  0
  6  7  2  0
  7  8  1  0
  8  9  2  0
  9 10  1  0
 10 11  1  0
 11 12  2  0
 11 13  1  0
 13 14  2  0
 14 15  1  0
 15 16  2  0
 16 17  1  0
 17 18  1  0
 18 19  2  0
 19 20  1  0
 20 21  1  0
 21 22  1  0
 22 23  1  0
 23 24  1  0
 24 25  1  0
 23 26  1  0
 26 27  1  0
 19 28  1  0
 28 29  2  0
  9 30  1  0
 30 31  2  0
 31 32  1  0
 32  4  1  0
 31  6  1  0
 29 13  1  0
 28 16  1  0
 27 20  1  0
M  END
>  <name>  (1238) 
P142166

>  <alias>  (1238) 
None

>  <smina_score_min>  (1238) 
-10.06

>  <exports>  (1238) 
['/opt/xchem-fragalysis-2/maxwin/BulkDock/OUTPUTS/openbind_xx01zvns2b_c2_elabs_1LOUTNY.sdf', '/opt/xchem-fragalysis-2/maxwin/BulkDock/OUTPUTS/openbind_xx01zvns2b_c2_elabs_1LSYIIV.sdf']

>  <tags>  (1238) 
syndirella_placed,openbind_xx01zvns2b_c2_elabs,openbind_xx01zvns2b_c2_elabs_scored_6.2plus,syndirella_product,openbind_xx01zvns2b_c2_elabs_scored,openbind_xx01zvns2b_c2_elabs_scored_top80percent,BulkDock Fragalysis export

>  <subsites>  (1238) 
1 - Z4590/B/203/1

>  <smiles>  (1238) 
CCCN1Cc2ccc(NC(=O)c3ccc4[nH]cc(C5CCN(CC)CC5)c4c3)cc2C1

>  <HIPPO Pose ID>  (1238) 
142166

>  <energy_score>  (1238) 
-52.316126

>  <inchikey>  (1238) 
IWNVMTXHNUMOOL-UHFFFAOYSA-N

>  <gnina_score_min>  (1238) 
6.321

>  <gnina_score>  (1238) 
6.188

>  <ref_mols>  (1238) 
Z4161a

>  <HIPPO Compound ID>  (1238) 
199785

>  <distance_score>  (1238) 
0.7161

>  <rmsd(smina/fragmenstein)>  (1238) 
1.147

>  <ref_pdb>  (1238) 
Z4161a

>  <inspiration_score>  (1238) 
None

$$$$
P142169
     RDKit          3D

 33 37  0  0  0  0  0  0  0  0999 V2000
   -0.2120    9.1379  -16.3184 C   0  0  0  0  0  0  0  0  0  0  0  0
   -0.2304    7.8763  -17.1756 C   0  0  0  0  0  0  0  0  0  0  0  0
   -1.5566    7.2519  -17.2479 N   0  0  0  0  0  0  0  0  0  0  0  0
   -2.5588    8.1332  -17.8732 C   0  0  0  0  0  0  0  0  0  0  0  0
   -3.7721    7.3900  -18.4487 C   0  0  0  0  0  0  0  0  0  0  0  0
   -4.0220    6.1033  -17.6694 C   0  0  0  0  0  0  0  0  0  0  0  0
   -5.3017    5.4156  -18.0475 C   0  0  0  0  0  0  0  0  0  0  0  0
   -5.7747    5.0874  -19.2995 C   0  0  0  0  0  0  0  0  0  0  0  0
   -7.0225    4.5244  -19.1637 N   0  0  0  0  0  0  0  0  0  0  0  0
   -7.3721    4.4608  -17.8347 C   0  0  0  0  0  0  0  0  0  0  0  0
   -8.5432    4.0023  -17.2108 C   0  0  0  0  0  0  0  0  0  0  0  0
   -8.6642    4.2034  -15.8291 C   0  0  0  0  0  0  0  0  0  0  0  0
   -7.6328    4.8116  -15.1214 C   0  0  0  0  0  0  0  0  0  0  0  0
   -7.7994    5.3381  -13.7565 C   0  0  0  0  0  0  0  0  0  0  0  0
   -7.6081    6.4791  -13.6043 O   0  0  0  0  0  0  0  0  0  0  0  0
   -8.1125    4.2340  -12.7325 N   0  0  0  0  0  0  0  0  0  0  0  0
   -8.1618    4.2777  -11.3463 C   0  0  0  0  0  0  0  0  0  0  0  0
   -7.7591    5.4625  -10.6956 C   0  0  0  0  0  0  0  0  0  0  0  0
   -7.7858    5.5758   -9.3125 C   0  0  0  0  0  0  0  0  0  0  0  0
   -8.2522    4.4950   -8.6065 C   0  0  0  0  0  0  0  0  0  0  0  0
   -8.6650    3.3179   -9.2420 C   0  0  0  0  0  0  0  0  0  0  0  0
   -8.5985    3.1746  -10.6163 C   0  0  0  0  0  0  0  0  0  0  0  0
   -9.2061    2.3870   -8.2028 C   0  0  0  0  0  0  0  0  0  0  0  0
   -9.4416    3.2929   -7.0451 N   0  0  0  0  0  0  0  0  0  0  0  0
   -9.4053    2.6123   -5.7590 C   0  0  0  0  0  0  0  0  0  0  0  0
  -10.5916    1.6850   -5.5102 C   0  0  0  0  0  0  0  0  0  0  0  0
  -11.7533    2.3863   -5.5232 F   0  0  0  0  0  0  0  0  0  0  0  0
  -10.6613    0.7384   -6.4707 F   0  0  0  0  0  0  0  0  0  0  0  0
   -8.4527    4.3641   -7.1400 C   0  0  0  0  0  0  0  0  0  0  0  0
   -6.4317    5.1643  -15.7377 C   0  0  0  0  0  0  0  0  0  0  0  0
   -6.3122    5.0180  -17.1238 C   0  0  0  0  0  0  0  0  0  0  0  0
   -2.8021    5.1770  -17.7402 C   0  0  0  0  0  0  0  0  0  0  0  0
   -1.4936    5.9522  -17.9285 C   0  0  0  0  0  0  0  0  0  0  0  0
  1  2  1  0
  2  3  1  0
  3  4  1  0
  4  5  1  0
  5  6  1  0
  6  7  1  0
  7  8  2  0
  8  9  1  0
  9 10  1  0
 10 11  2  0
 11 12  1  0
 12 13  2  0
 13 14  1  0
 14 15  2  0
 14 16  1  0
 16 17  1  0
 17 18  2  0
 18 19  1  0
 19 20  2  0
 20 21  1  0
 21 22  2  0
 21 23  1  0
 23 24  1  0
 24 25  1  0
 25 26  1  0
 26 27  1  0
 26 28  1  0
 24 29  1  0
 13 30  1  0
 30 31  2  0
  6 32  1  0
 32 33  1  0
 33  3  1  0
 31  7  1  0
 31 10  1  0
 22 17  1  0
 29 20  1  0
M  END
>  <name>  (1239) 
P142169

>  <alias>  (1239) 
None

>  <smina_score_min>  (1239) 
-10.593

>  <exports>  (1239) 
['/opt/xchem-fragalysis-2/maxwin/BulkDock/OUTPUTS/openbind_xx01zvns2b_c2_elabs_1LOUTNY.sdf', '/opt/xchem-fragalysis-2/maxwin/BulkDock/OUTPUTS/openbind_xx01zvns2b_c2_elabs_1LSYIIV.sdf']

>  <tags>  (1239) 
syndirella_placed,openbind_xx01zvns2b_c2_elabs,openbind_xx01zvns2b_c2_elabs_scored_6.2plus,syndirella_product,openbind_xx01zvns2b_c2_elabs_scored,openbind_xx01zvns2b_c2_elabs_scored_top80percent,BulkDock Fragalysis export

>  <subsites>  (1239) 
1 - Z4590/B/203/1

>  <smiles>  (1239) 
CCN1CCC(c2c[nH]c3ccc(C(=O)Nc4ccc5c(c4)CN(CC(F)F)C5)cc23)CC1

>  <HIPPO Pose ID>  (1239) 
142169

>  <energy_score>  (1239) 
-41.311096

>  <inchikey>  (1239) 
VBGRLDAOCHNVME-UHFFFAOYSA-N

>  <gnina_score_min>  (1239) 
6.396

>  <gnina_score>  (1239) 
6.185

>  <ref_mols>  (1239) 
Z4161a

>  <HIPPO Compound ID>  (1239) 
199790

>  <distance_score>  (1239) 
0.686973

>  <rmsd(smina/fragmenstein)>  (1239) 
1.285

>  <ref_pdb>  (1239) 
Z4161a

>  <inspiration_score>  (1239) 
None

$$$$
P142171
     RDKit          3D

 34 38  0  0  0  0  0  0  0  0999 V2000
   -0.3335    9.3070  -16.2161 C   0  0  0  0  0  0  0  0  0  0  0  0
   -0.3726    7.9837  -16.9719 C   0  0  0  0  0  0  0  0  0  0  0  0
   -1.6989    7.3427  -16.9605 N   0  0  0  0  0  0  0  0  0  0  0  0
   -1.5819    5.9770  -17.5059 C   0  0  0  0  0  0  0  0  0  0  0  0
   -2.9173    5.2337  -17.4899 C   0  0  0  0  0  0  0  0  0  0  0  0
   -3.9693    6.0257  -18.2649 C   0  0  0  0  0  0  0  0  0  0  0  0
   -5.3024    5.3368  -18.3484 C   0  0  0  0  0  0  0  0  0  0  0  0
   -5.9003    4.9329  -19.5222 C   0  0  0  0  0  0  0  0  0  0  0  0
   -7.1305    4.4033  -19.2367 N   0  0  0  0  0  0  0  0  0  0  0  0
   -7.3520    4.4253  -17.8827 C   0  0  0  0  0  0  0  0  0  0  0  0
   -8.4730    4.0122  -17.1470 C   0  0  0  0  0  0  0  0  0  0  0  0
   -8.4663    4.2510  -15.7720 C   0  0  0  0  0  0  0  0  0  0  0  0
   -7.3596    4.8554  -15.1801 C   0  0  0  0  0  0  0  0  0  0  0  0
   -7.4294    5.3785  -13.8071 C   0  0  0  0  0  0  0  0  0  0  0  0
   -7.2364    6.5214  -13.6633 O   0  0  0  0  0  0  0  0  0  0  0  0
   -7.7485    4.2800  -12.7721 N   0  0  0  0  0  0  0  0  0  0  0  0
   -7.9822    4.3683  -11.4057 C   0  0  0  0  0  0  0  0  0  0  0  0
   -7.8577    5.6304  -10.7962 C   0  0  0  0  0  0  0  0  0  0  0  0
   -8.0749    5.7967   -9.4410 C   0  0  0  0  0  0  0  0  0  0  0  0
   -8.3997    4.6756   -8.7159 C   0  0  0  0  0  0  0  0  0  0  0  0
   -8.5149    3.4114   -9.2932 C   0  0  0  0  0  0  0  0  0  0  0  0
   -8.3201    3.2374  -10.6542 C   0  0  0  0  0  0  0  0  0  0  0  0
   -8.9015    2.4319   -8.2256 C   0  0  0  0  0  0  0  0  0  0  0  0
   -8.7561    3.1964   -6.9537 N   0  0  0  0  0  0  0  0  0  0  0  0
   -9.7296    2.8220   -5.9489 C   0  0  0  0  0  0  0  0  0  0  0  0
   -9.9025    3.7781   -4.7560 C   0  0  0  0  0  0  0  0  0  0  0  0
   -8.7116    4.4125   -3.9965 C   0  0  0  0  0  0  0  0  0  0  0  0
   -7.3279    3.8275   -4.2387 C   0  0  0  0  0  0  0  0  0  0  0  0
   -9.0064    4.4256   -2.4905 C   0  0  0  0  0  0  0  0  0  0  0  0
   -8.7178    4.6173   -7.2730 C   0  0  0  0  0  0  0  0  0  0  0  0
   -6.2187    5.2005  -15.9140 C   0  0  0  0  0  0  0  0  0  0  0  0
   -6.2208    5.0043  -17.3017 C   0  0  0  0  0  0  0  0  0  0  0  0
   -4.0673    7.4485  -17.7085 C   0  0  0  0  0  0  0  0  0  0  0  0
   -2.6945    8.1233  -17.7106 C   0  0  0  0  0  0  0  0  0  0  0  0
  1  2  1  0
  2  3  1  0
  3  4  1  0
  4  5  1  0
  5  6  1  0
  6  7  1  0
  7  8  2  0
  8  9  1  0
  9 10  1  0
 10 11  2  0
 11 12  1  0
 12 13  2  0
 13 14  1  0
 14 15  2  0
 14 16  1  0
 16 17  1  0
 17 18  2  0
 18 19  1  0
 19 20  2  0
 20 21  1  0
 21 22  2  0
 21 23  1  0
 23 24  1  0
 24 25  1  0
 25 26  1  0
 26 27  1  0
 27 28  1  0
 27 29  1  0
 24 30  1  0
 13 31  1  0
 31 32  2  0
  6 33  1  0
 33 34  1  0
 34  3  1  0
 32  7  1  0
 32 10  1  0
 22 17  1  0
 30 20  1  0
M  END
>  <name>  (1240) 
P142171

>  <alias>  (1240) 
None

>  <smina_score_min>  (1240) 
-9.929

>  <exports>  (1240) 
['/opt/xchem-fragalysis-2/maxwin/BulkDock/OUTPUTS/openbind_xx01zvns2b_c2_elabs_1LOUTNY.sdf', '/opt/xchem-fragalysis-2/maxwin/BulkDock/OUTPUTS/openbind_xx01zvns2b_c2_elabs_1LSYIIV.sdf']

>  <tags>  (1240) 
syndirella_placed,openbind_xx01zvns2b_c2_elabs,openbind_xx01zvns2b_c2_elabs_scored_6.2plus,syndirella_product,openbind_xx01zvns2b_c2_elabs_scored,openbind_xx01zvns2b_c2_elabs_scored_top80percent,BulkDock Fragalysis export

>  <subsites>  (1240) 
1 - Z4590/B/203/1

>  <smiles>  (1240) 
CCN1CCC(c2c[nH]c3ccc(C(=O)Nc4ccc5c(c4)CN(CCC(C)C)C5)cc23)CC1

>  <HIPPO Pose ID>  (1240) 
142171

>  <energy_score>  (1240) 
-60.133273

>  <inchikey>  (1240) 
WJWIWAYUKVHVLE-UHFFFAOYSA-N

>  <gnina_score_min>  (1240) 
6.491

>  <gnina_score>  (1240) 
6.376

>  <ref_mols>  (1240) 
Z4161a

>  <HIPPO Compound ID>  (1240) 
199792

>  <distance_score>  (1240) 
0.660355

>  <rmsd(smina/fragmenstein)>  (1240) 
1.348

>  <ref_pdb>  (1240) 
Z4161a

>  <inspiration_score>  (1240) 
None

$$$$
P142172
     RDKit          3D

 34 38  0  0  0  0  0  0  0  0999 V2000
   -7.6597    4.5509   -3.0036 C   0  0  0  0  0  0  0  0  0  0  0  0
   -7.8813    3.7999   -4.3090 C   0  0  0  0  0  0  0  0  0  0  0  0
   -9.3754    3.5694   -4.5599 C   0  0  0  0  0  0  0  0  0  0  0  0
   -9.7310    2.7680   -5.8216 C   0  0  0  0  0  0  0  0  0  0  0  0
   -9.0801    3.2139   -7.0307 N   0  0  0  0  0  0  0  0  0  0  0  0
   -9.0374    2.3657   -8.2274 C   0  0  0  0  0  0  0  0  0  0  0  0
   -8.5917    3.3262   -9.2849 C   0  0  0  0  0  0  0  0  0  0  0  0
   -8.3834    3.1648  -10.6464 C   0  0  0  0  0  0  0  0  0  0  0  0
   -8.0268    4.3023  -11.3890 C   0  0  0  0  0  0  0  0  0  0  0  0
   -7.8627    4.2382  -12.7675 N   0  0  0  0  0  0  0  0  0  0  0  0
   -7.4609    5.3317  -13.7818 C   0  0  0  0  0  0  0  0  0  0  0  0
   -7.2794    6.4758  -13.6300 O   0  0  0  0  0  0  0  0  0  0  0  0
   -7.3743    4.8232  -15.1611 C   0  0  0  0  0  0  0  0  0  0  0  0
   -8.4785    4.2273  -15.7677 C   0  0  0  0  0  0  0  0  0  0  0  0
   -8.4802    4.0043  -17.1451 C   0  0  0  0  0  0  0  0  0  0  0  0
   -7.3567    4.4252  -17.8712 C   0  0  0  0  0  0  0  0  0  0  0  0
   -7.1317    4.4169  -19.2249 N   0  0  0  0  0  0  0  0  0  0  0  0
   -5.9014    4.9498  -19.5012 C   0  0  0  0  0  0  0  0  0  0  0  0
   -5.3078    5.3436  -18.3217 C   0  0  0  0  0  0  0  0  0  0  0  0
   -3.9759    6.0337  -18.2330 C   0  0  0  0  0  0  0  0  0  0  0  0
   -4.0739    7.4513  -17.6646 C   0  0  0  0  0  0  0  0  0  0  0  0
   -2.7022    8.1285  -17.6720 C   0  0  0  0  0  0  0  0  0  0  0  0
   -1.6988    7.3442  -16.9360 N   0  0  0  0  0  0  0  0  0  0  0  0
   -0.3728    7.9861  -16.9580 C   0  0  0  0  0  0  0  0  0  0  0  0
   -0.3273    9.3092  -16.2024 C   0  0  0  0  0  0  0  0  0  0  0  0
   -1.5857    5.9810  -17.4883 C   0  0  0  0  0  0  0  0  0  0  0  0
   -2.9208    5.2373  -17.4676 C   0  0  0  0  0  0  0  0  0  0  0  0
   -6.2283    4.9997  -17.2796 C   0  0  0  0  0  0  0  0  0  0  0  0
   -6.2324    5.1816  -15.8885 C   0  0  0  0  0  0  0  0  0  0  0  0
   -7.8620    5.5563  -10.7657 C   0  0  0  0  0  0  0  0  0  0  0  0
   -8.0859    5.7165   -9.4114 C   0  0  0  0  0  0  0  0  0  0  0  0
   -8.4549    4.5912   -8.7170 C   0  0  0  0  0  0  0  0  0  0  0  0
   -8.8620    4.5409   -7.3269 C   0  0  0  0  0  0  0  0  0  0  0  0
   -9.0027    5.5400   -6.6446 O   0  0  0  0  0  0  0  0  0  0  0  0
  1  2  1  0
  2  3  1  0
  3  4  1  0
  4  5  1  0
  5  6  1  0
  6  7  1  0
  7  8  2  0
  8  9  1  0
  9 10  1  0
 10 11  1  0
 11 12  2  0
 11 13  1  0
 13 14  2  0
 14 15  1  0
 15 16  2  0
 16 17  1  0
 17 18  1  0
 18 19  2  0
 19 20  1  0
 20 21  1  0
 21 22  1  0
 22 23  1  0
 23 24  1  0
 24 25  1  0
 23 26  1  0
 26 27  1  0
 19 28  1  0
 28 29  2  0
  9 30  2  0
 30 31  1  0
 31 32  2  0
 32 33  1  0
 33 34  2  0
 33  5  1  0
 32  7  1  0
 29 13  1  0
 28 16  1  0
 27 20  1  0
M  END
>  <name>  (1241) 
P142172

>  <alias>  (1241) 
None

>  <smina_score_min>  (1241) 
-8.13

>  <exports>  (1241) 
['/opt/xchem-fragalysis-2/maxwin/BulkDock/OUTPUTS/openbind_xx01zvns2b_c2_elabs_1LOUTNY.sdf', '/opt/xchem-fragalysis-2/maxwin/BulkDock/OUTPUTS/openbind_xx01zvns2b_c2_elabs_1LSYIIV.sdf']

>  <tags>  (1241) 
syndirella_placed,openbind_xx01zvns2b_c2_elabs,openbind_xx01zvns2b_c2_elabs_scored_6.2plus,syndirella_product,openbind_xx01zvns2b_c2_elabs_scored,openbind_xx01zvns2b_c2_elabs_scored_top80percent,BulkDock Fragalysis export

>  <subsites>  (1241) 
1 - Z4590/B/203/1

>  <smiles>  (1241) 
CCCCN1Cc2cc(NC(=O)c3ccc4[nH]cc(C5CCN(CC)CC5)c4c3)ccc2C1=O

>  <HIPPO Pose ID>  (1241) 
142172

>  <energy_score>  (1241) 
-42.359133

>  <inchikey>  (1241) 
IZKKRWPVQHPXIO-UHFFFAOYSA-N

>  <gnina_score_min>  (1241) 
6.337

>  <gnina_score>  (1241) 
6.363

>  <ref_mols>  (1241) 
Z4161a

>  <HIPPO Compound ID>  (1241) 
199793

>  <distance_score>  (1241) 
0.621503

>  <rmsd(smina/fragmenstein)>  (1241) 
0.966

>  <ref_pdb>  (1241) 
Z4161a

>  <inspiration_score>  (1241) 
None

$$$$
P142176
     RDKit          3D

 34 38  0  0  0  0  0  0  0  0999 V2000
   -0.3175    9.3283  -16.2067 C   0  0  0  0  0  0  0  0  0  0  0  0
   -0.3816    7.9984  -16.9488 C   0  0  0  0  0  0  0  0  0  0  0  0
   -1.7110    7.3655  -16.9017 N   0  0  0  0  0  0  0  0  0  0  0  0
   -2.7205    8.1482  -17.6305 C   0  0  0  0  0  0  0  0  0  0  0  0
   -4.0956    7.4784  -17.5988 C   0  0  0  0  0  0  0  0  0  0  0  0
   -4.0112    6.0568  -18.1579 C   0  0  0  0  0  0  0  0  0  0  0  0
   -5.3471    5.3727  -18.2319 C   0  0  0  0  0  0  0  0  0  0  0  0
   -5.9436    4.9695  -19.4077 C   0  0  0  0  0  0  0  0  0  0  0  0
   -7.1729    4.4399  -19.1253 N   0  0  0  0  0  0  0  0  0  0  0  0
   -7.3936    4.4599  -17.7702 C   0  0  0  0  0  0  0  0  0  0  0  0
   -8.5133    4.0414  -17.0389 C   0  0  0  0  0  0  0  0  0  0  0  0
   -8.5085    4.2705  -15.6616 C   0  0  0  0  0  0  0  0  0  0  0  0
   -7.4091    4.8734  -15.0507 C   0  0  0  0  0  0  0  0  0  0  0  0
   -7.4716    5.3131  -13.6356 C   0  0  0  0  0  0  0  0  0  0  0  0
   -7.1535    6.4103  -13.3918 O   0  0  0  0  0  0  0  0  0  0  0  0
   -7.9870    4.1902  -12.7079 N   0  0  0  0  0  0  0  0  0  0  0  0
   -8.1239    4.1530  -11.3232 C   0  0  0  0  0  0  0  0  0  0  0  0
   -7.9249    5.3204  -10.5679 C   0  0  0  0  0  0  0  0  0  0  0  0
   -8.0068    5.2950   -9.1782 C   0  0  0  0  0  0  0  0  0  0  0  0
   -8.2893    4.0886   -8.5696 C   0  0  0  0  0  0  0  0  0  0  0  0
   -8.5074    2.9316   -9.3074 C   0  0  0  0  0  0  0  0  0  0  0  0
   -8.4350    2.9453  -10.6913 C   0  0  0  0  0  0  0  0  0  0  0  0
   -8.7640    1.7887   -8.3768 C   0  0  0  0  0  0  0  0  0  0  0  0
   -8.8064    2.3843   -7.0085 N   0  0  0  0  0  0  0  0  0  0  0  0
  -10.1243    2.1852   -6.3892 C   0  0  0  0  0  0  0  0  0  0  0  0
  -10.5081    2.9770   -5.1368 C   0  0  0  0  0  0  0  0  0  0  0  0
   -9.5493    3.0351   -4.1905 F   0  0  0  0  0  0  0  0  0  0  0  0
  -10.8002    4.2649   -5.4615 F   0  0  0  0  0  0  0  0  0  0  0  0
  -11.6260    2.4620   -4.5747 F   0  0  0  0  0  0  0  0  0  0  0  0
   -8.3789    3.7889   -7.1165 C   0  0  0  0  0  0  0  0  0  0  0  0
   -6.2725    5.2343  -15.7889 C   0  0  0  0  0  0  0  0  0  0  0  0
   -6.2668    5.0423  -17.1826 C   0  0  0  0  0  0  0  0  0  0  0  0
   -2.9531    5.2603  -17.3977 C   0  0  0  0  0  0  0  0  0  0  0  0
   -1.6136    5.9954  -17.4398 C   0  0  0  0  0  0  0  0  0  0  0  0
  1  2  1  0
  2  3  1  0
  3  4  1  0
  4  5  1  0
  5  6  1  0
  6  7  1  0
  7  8  2  0
  8  9  1  0
  9 10  1  0
 10 11  2  0
 11 12  1  0
 12 13  2  0
 13 14  1  0
 14 15  2  0
 14 16  1  0
 16 17  1  0
 17 18  2  0
 18 19  1  0
 19 20  2  0
 20 21  1  0
 21 22  2  0
 21 23  1  0
 23 24  1  0
 24 25  1  0
 25 26  1  0
 26 27  1  0
 26 28  1  0
 26 29  1  0
 24 30  1  0
 13 31  1  0
 31 32  2  0
  6 33  1  0
 33 34  1  0
 34  3  1  0
 32  7  1  0
 32 10  1  0
 22 17  1  0
 30 20  1  0
M  END
>  <name>  (1242) 
P142176

>  <alias>  (1242) 
None

>  <smina_score_min>  (1242) 
-10.072

>  <exports>  (1242) 
['/opt/xchem-fragalysis-2/maxwin/BulkDock/OUTPUTS/openbind_xx01zvns2b_c2_elabs_1LOUTNY.sdf', '/opt/xchem-fragalysis-2/maxwin/BulkDock/OUTPUTS/openbind_xx01zvns2b_c2_elabs_1LSYIIV.sdf']

>  <tags>  (1242) 
syndirella_placed,openbind_xx01zvns2b_c2_elabs,openbind_xx01zvns2b_c2_elabs_scored_6.2plus,syndirella_product,openbind_xx01zvns2b_c2_elabs_scored,openbind_xx01zvns2b_c2_elabs_scored_top80percent,BulkDock Fragalysis export

>  <subsites>  (1242) 
1 - Z4590/B/203/1

>  <smiles>  (1242) 
CCN1CCC(c2c[nH]c3ccc(C(=O)Nc4ccc5c(c4)CN(CC(F)(F)F)C5)cc23)CC1

>  <HIPPO Pose ID>  (1242) 
142176

>  <energy_score>  (1242) 
-47.235148

>  <inchikey>  (1242) 
KDDNLHHSJAGYND-UHFFFAOYSA-N

>  <gnina_score_min>  (1242) 
6.409

>  <gnina_score>  (1242) 
6.291

>  <ref_mols>  (1242) 
Z4161a

>  <HIPPO Compound ID>  (1242) 
199796

>  <distance_score>  (1242) 
0.426097

>  <rmsd(smina/fragmenstein)>  (1242) 
1.013

>  <ref_pdb>  (1242) 
Z4161a

>  <inspiration_score>  (1242) 
None

$$$$
P142177
     RDKit          3D

 34 38  0  0  0  0  0  0  0  0999 V2000
   -0.3219    9.3113  -16.2038 C   0  0  0  0  0  0  0  0  0  0  0  0
   -0.3750    7.9879  -16.9583 C   0  0  0  0  0  0  0  0  0  0  0  0
   -1.7019    7.3485  -16.9265 N   0  0  0  0  0  0  0  0  0  0  0  0
   -1.5952    5.9845  -17.4780 C   0  0  0  0  0  0  0  0  0  0  0  0
   -2.9314    5.2429  -17.4471 C   0  0  0  0  0  0  0  0  0  0  0  0
   -3.9911    6.0408  -18.2044 C   0  0  0  0  0  0  0  0  0  0  0  0
   -5.3252    5.3536  -18.2827 C   0  0  0  0  0  0  0  0  0  0  0  0
   -5.9274    4.9614  -19.4587 C   0  0  0  0  0  0  0  0  0  0  0  0
   -7.1566    4.4307  -19.1749 N   0  0  0  0  0  0  0  0  0  0  0  0
   -7.3714    4.4373  -17.8191 C   0  0  0  0  0  0  0  0  0  0  0  0
   -8.4893    4.0158  -17.0849 C   0  0  0  0  0  0  0  0  0  0  0  0
   -8.4748    4.2302  -15.7056 C   0  0  0  0  0  0  0  0  0  0  0  0
   -7.3654    4.8202  -15.1021 C   0  0  0  0  0  0  0  0  0  0  0  0
   -7.4322    5.2962  -13.7073 C   0  0  0  0  0  0  0  0  0  0  0  0
   -7.2391    6.4346  -13.5274 O   0  0  0  0  0  0  0  0  0  0  0  0
   -7.8312    4.1787  -12.7164 N   0  0  0  0  0  0  0  0  0  0  0  0
   -7.9781    4.2076  -11.3333 C   0  0  0  0  0  0  0  0  0  0  0  0
   -7.7809    5.4347  -10.6697 C   0  0  0  0  0  0  0  0  0  0  0  0
   -7.9905    5.5510   -9.3065 C   0  0  0  0  0  0  0  0  0  0  0  0
   -8.3821    4.4117   -8.6435 C   0  0  0  0  0  0  0  0  0  0  0  0
   -8.5552    3.1749   -9.2543 C   0  0  0  0  0  0  0  0  0  0  0  0
   -8.3544    3.0555  -10.6224 C   0  0  0  0  0  0  0  0  0  0  0  0
   -9.0378    2.1930   -8.2340 C   0  0  0  0  0  0  0  0  0  0  0  0
   -9.1556    3.0135   -7.0200 N   0  0  0  0  0  0  0  0  0  0  0  0
  -10.0189    2.5700   -5.9345 C   0  0  0  0  0  0  0  0  0  0  0  0
  -10.1704    3.4830   -4.7055 C   0  0  0  0  0  0  0  0  0  0  0  0
   -9.1618    3.3990   -3.6964 O   0  0  0  0  0  0  0  0  0  0  0  0
   -7.9685    4.0804   -4.0324 C   0  0  0  0  0  0  0  0  0  0  0  0
   -8.8195    4.3292   -7.2626 C   0  0  0  0  0  0  0  0  0  0  0  0
   -8.9068    5.3186   -6.5589 O   0  0  0  0  0  0  0  0  0  0  0  0
   -6.2324    5.1867  -15.8404 C   0  0  0  0  0  0  0  0  0  0  0  0
   -6.2385    5.0098  -17.2336 C   0  0  0  0  0  0  0  0  0  0  0  0
   -4.0822    7.4589  -17.6363 C   0  0  0  0  0  0  0  0  0  0  0  0
   -2.7094    8.1337  -17.6555 C   0  0  0  0  0  0  0  0  0  0  0  0
  1  2  1  0
  2  3  1  0
  3  4  1  0
  4  5  1  0
  5  6  1  0
  6  7  1  0
  7  8  2  0
  8  9  1  0
  9 10  1  0
 10 11  2  0
 11 12  1  0
 12 13  2  0
 13 14  1  0
 14 15  2  0
 14 16  1  0
 16 17  1  0
 17 18  2  0
 18 19  1  0
 19 20  2  0
 20 21  1  0
 21 22  2  0
 21 23  1  0
 23 24  1  0
 24 25  1  0
 25 26  1  0
 26 27  1  0
 27 28  1  0
 24 29  1  0
 29 30  2  0
 13 31  1  0
 31 32  2  0
  6 33  1  0
 33 34  1  0
 34  3  1  0
 32  7  1  0
 32 10  1  0
 22 17  1  0
 29 20  1  0
M  END
>  <name>  (1243) 
P142177

>  <alias>  (1243) 
None

>  <smina_score_min>  (1243) 
-9.65

>  <exports>  (1243) 
['/opt/xchem-fragalysis-2/maxwin/BulkDock/OUTPUTS/openbind_xx01zvns2b_c2_elabs_1LOUTNY.sdf', '/opt/xchem-fragalysis-2/maxwin/BulkDock/OUTPUTS/openbind_xx01zvns2b_c2_elabs_1LSYIIV.sdf']

>  <tags>  (1243) 
syndirella_placed,openbind_xx01zvns2b_c2_elabs,openbind_xx01zvns2b_c2_elabs_scored_6.2plus,syndirella_product,openbind_xx01zvns2b_c2_elabs_scored,openbind_xx01zvns2b_c2_elabs_scored_top80percent,BulkDock Fragalysis export

>  <subsites>  (1243) 
1 - Z4590/B/203/1

>  <smiles>  (1243) 
CCN1CCC(c2c[nH]c3ccc(C(=O)Nc4ccc5c(c4)CN(CCOC)C5=O)cc23)CC1

>  <HIPPO Pose ID>  (1243) 
142177

>  <energy_score>  (1243) 
-40.732833

>  <inchikey>  (1243) 
UWZAJOQOOPPXEU-UHFFFAOYSA-N

>  <gnina_score_min>  (1243) 
6.406

>  <gnina_score>  (1243) 
6.303

>  <ref_mols>  (1243) 
Z4161a

>  <HIPPO Compound ID>  (1243) 
199798

>  <distance_score>  (1243) 
0.545938

>  <rmsd(smina/fragmenstein)>  (1243) 
1.028

>  <ref_pdb>  (1243) 
Z4161a

>  <inspiration_score>  (1243) 
None

$$$$
P142179
     RDKit          3D

 35 40  0  0  0  0  0  0  0  0999 V2000
   -0.3054    9.1524  -16.2924 C   0  0  0  0  0  0  0  0  0  0  0  0
   -0.3168    7.9388  -17.2155 C   0  0  0  0  0  0  0  0  0  0  0  0
   -1.6261    7.2781  -17.2767 N   0  0  0  0  0  0  0  0  0  0  0  0
   -1.4892    5.9389  -17.8895 C   0  0  0  0  0  0  0  0  0  0  0  0
   -2.8043    5.3511  -18.4216 C   0  0  0  0  0  0  0  0  0  0  0  0
   -3.9913    5.9144  -17.6511 C   0  0  0  0  0  0  0  0  0  0  0  0
   -5.3153    5.3029  -18.0137 C   0  0  0  0  0  0  0  0  0  0  0  0
   -5.8439    5.0411  -19.2590 C   0  0  0  0  0  0  0  0  0  0  0  0
   -7.1076    4.5195  -19.0999 N   0  0  0  0  0  0  0  0  0  0  0  0
   -7.4203    4.4334  -17.7623 C   0  0  0  0  0  0  0  0  0  0  0  0
   -8.5861    3.9989  -17.1093 C   0  0  0  0  0  0  0  0  0  0  0  0
   -8.6509    4.1505  -15.7150 C   0  0  0  0  0  0  0  0  0  0  0  0
   -7.5751    4.6927  -15.0219 C   0  0  0  0  0  0  0  0  0  0  0  0
   -7.6669    5.1786  -13.6348 C   0  0  0  0  0  0  0  0  0  0  0  0
   -7.4015    6.3078  -13.4842 O   0  0  0  0  0  0  0  0  0  0  0  0
   -8.0021    4.0804  -12.5980 N   0  0  0  0  0  0  0  0  0  0  0  0
   -8.1678    4.1604  -11.2164 C   0  0  0  0  0  0  0  0  0  0  0  0
   -7.8910    5.4182  -10.6317 C   0  0  0  0  0  0  0  0  0  0  0  0
   -8.0196    5.6322   -9.2755 C   0  0  0  0  0  0  0  0  0  0  0  0
   -8.4332    4.5562   -8.5334 C   0  0  0  0  0  0  0  0  0  0  0  0
   -8.7056    3.3078   -9.0572 C   0  0  0  0  0  0  0  0  0  0  0  0
   -8.5707    3.0723  -10.4216 C   0  0  0  0  0  0  0  0  0  0  0  0
   -9.2347    2.5111   -7.9314 C   0  0  0  0  0  0  0  0  0  0  0  0
   -9.7199    1.4044   -8.0566 O   0  0  0  0  0  0  0  0  0  0  0  0
   -9.1821    3.3176   -6.8091 N   0  0  0  0  0  0  0  0  0  0  0  0
   -9.8504    3.0065   -5.5524 C   0  0  0  0  0  0  0  0  0  0  0  0
   -9.4518    3.9661   -4.4536 C   0  0  0  0  0  0  0  0  0  0  0  0
   -9.0505    3.6030   -3.0477 C   0  0  0  0  0  0  0  0  0  0  0  0
   -8.0036    4.0473   -4.0198 C   0  0  0  0  0  0  0  0  0  0  0  0
   -8.8014    4.5815   -7.1430 C   0  0  0  0  0  0  0  0  0  0  0  0
   -8.8148    5.6324   -6.5245 O   0  0  0  0  0  0  0  0  0  0  0  0
   -6.3924    5.0448  -15.6788 C   0  0  0  0  0  0  0  0  0  0  0  0
   -6.3193    4.9322  -17.0714 C   0  0  0  0  0  0  0  0  0  0  0  0
   -4.0309    7.4484  -17.7578 C   0  0  0  0  0  0  0  0  0  0  0  0
   -2.6441    8.0629  -17.9745 C   0  0  0  0  0  0  0  0  0  0  0  0
  1  2  1  0
  2  3  1  0
  3  4  1  0
  4  5  1  0
  5  6  1  0
  6  7  1  0
  7  8  2  0
  8  9  1  0
  9 10  1  0
 10 11  2  0
 11 12  1  0
 12 13  2  0
 13 14  1  0
 14 15  2  0
 14 16  1  0
 16 17  1  0
 17 18  2  0
 18 19  1  0
 19 20  2  0
 20 21  1  0
 21 22  2  0
 21 23  1  0
 23 24  2  0
 23 25  1  0
 25 26  1  0
 26 27  1  0
 27 28  1  0
 28 29  1  0
 25 30  1  0
 30 31  2  0
 13 32  1  0
 32 33  2  0
  6 34  1  0
 34 35  1  0
 35  3  1  0
 33  7  1  0
 33 10  1  0
 22 17  1  0
 29 27  1  0
 30 20  1  0
M  END
>  <name>  (1244) 
P142179

>  <alias>  (1244) 
None

>  <smina_score_min>  (1244) 
-10.442

>  <exports>  (1244) 
['/opt/xchem-fragalysis-2/maxwin/BulkDock/OUTPUTS/openbind_xx01zvns2b_c2_elabs_1LOUTNY.sdf', '/opt/xchem-fragalysis-2/maxwin/BulkDock/OUTPUTS/openbind_xx01zvns2b_c2_elabs_1LSYIIV.sdf']

>  <tags>  (1244) 
syndirella_placed,openbind_xx01zvns2b_c2_elabs,openbind_xx01zvns2b_c2_elabs_scored_6.2plus,syndirella_product,openbind_xx01zvns2b_c2_elabs_scored,openbind_xx01zvns2b_c2_elabs_scored_top80percent,BulkDock Fragalysis export

>  <subsites>  (1244) 
1 - Z4590/B/203/1

>  <smiles>  (1244) 
CCN1CCC(c2c[nH]c3ccc(C(=O)Nc4ccc5c(c4)C(=O)N(CC4CC4)C5=O)cc23)CC1

>  <HIPPO Pose ID>  (1244) 
142179

>  <energy_score>  (1244) 
-33.102217

>  <inchikey>  (1244) 
KSUZMVBIKVZYCT-UHFFFAOYSA-N

>  <gnina_score_min>  (1244) 
6.424

>  <gnina_score>  (1244) 
6.316

>  <ref_mols>  (1244) 
Z4161a

>  <HIPPO Compound ID>  (1244) 
199801

>  <distance_score>  (1244) 
0.640842

>  <rmsd(smina/fragmenstein)>  (1244) 
0.852

>  <ref_pdb>  (1244) 
Z4161a

>  <inspiration_score>  (1244) 
None

$$$$
P142180
     RDKit          3D

 35 40  0  0  0  0  0  0  0  0999 V2000
   -0.2074    9.4281  -16.0487 C   0  0  0  0  0  0  0  0  0  0  0  0
   -0.2925    8.0492  -16.6905 C   0  0  0  0  0  0  0  0  0  0  0  0
   -1.6327    7.4388  -16.6065 N   0  0  0  0  0  0  0  0  0  0  0  0
   -1.5461    6.0512  -17.1060 C   0  0  0  0  0  0  0  0  0  0  0  0
   -2.8983    5.3377  -17.1351 C   0  0  0  0  0  0  0  0  0  0  0  0
   -3.8705    6.1627  -17.9654 C   0  0  0  0  0  0  0  0  0  0  0  0
   -5.1862    5.5105  -18.2396 C   0  0  0  0  0  0  0  0  0  0  0  0
   -5.6190    5.2524  -19.5239 C   0  0  0  0  0  0  0  0  0  0  0  0
   -6.8591    4.6988  -19.4620 N   0  0  0  0  0  0  0  0  0  0  0  0
   -7.2710    4.6044  -18.1633 C   0  0  0  0  0  0  0  0  0  0  0  0
   -8.4894    4.1311  -17.6848 C   0  0  0  0  0  0  0  0  0  0  0  0
   -8.6544    4.1125  -16.3145 C   0  0  0  0  0  0  0  0  0  0  0  0
   -7.6220    4.5245  -15.4681 C   0  0  0  0  0  0  0  0  0  0  0  0
   -7.8121    4.1547  -14.0617 C   0  0  0  0  0  0  0  0  0  0  0  0
   -8.1683    3.0652  -13.8880 O   0  0  0  0  0  0  0  0  0  0  0  0
   -7.5539    5.2809  -13.0668 N   0  0  0  0  0  0  0  0  0  0  0  0
   -7.5860    5.2833  -11.6837 C   0  0  0  0  0  0  0  0  0  0  0  0
   -7.3149    6.4404  -10.9550 C   0  0  0  0  0  0  0  0  0  0  0  0
   -7.3815    6.4135   -9.5613 C   0  0  0  0  0  0  0  0  0  0  0  0
   -7.7001    5.2199   -8.9374 C   0  0  0  0  0  0  0  0  0  0  0  0
   -7.9617    4.0689   -9.6658 C   0  0  0  0  0  0  0  0  0  0  0  0
   -7.9233    4.0869  -11.0371 C   0  0  0  0  0  0  0  0  0  0  0  0
   -8.3279    2.9330   -8.7799 C   0  0  0  0  0  0  0  0  0  0  0  0
   -8.1862    3.5271   -7.4310 N   0  0  0  0  0  0  0  0  0  0  0  0
   -9.0706    3.0883   -6.4605 C   0  0  0  0  0  0  0  0  0  0  0  0
   -9.3204    3.8419   -5.3087 C   0  0  0  0  0  0  0  0  0  0  0  0
  -10.3825    3.5269   -4.4841 C   0  0  0  0  0  0  0  0  0  0  0  0
  -11.1987    2.4538   -4.8048 C   0  0  0  0  0  0  0  0  0  0  0  0
  -10.8342    1.5871   -5.8086 C   0  0  0  0  0  0  0  0  0  0  0  0
   -9.7582    1.8834   -6.6153 C   0  0  0  0  0  0  0  0  0  0  0  0
   -7.8756    4.9568   -7.4861 C   0  0  0  0  0  0  0  0  0  0  0  0
   -6.4060    5.0265  -15.9550 C   0  0  0  0  0  0  0  0  0  0  0  0
   -6.2314    5.0759  -17.3552 C   0  0  0  0  0  0  0  0  0  0  0  0
   -4.0062    7.5563  -17.3610 C   0  0  0  0  0  0  0  0  0  0  0  0
   -2.6342    8.2299  -17.3377 C   0  0  0  0  0  0  0  0  0  0  0  0
  1  2  1  0
  2  3  1  0
  3  4  1  0
  4  5  1  0
  5  6  1  0
  6  7  1  0
  7  8  2  0
  8  9  1  0
  9 10  1  0
 10 11  2  0
 11 12  1  0
 12 13  2  0
 13 14  1  0
 14 15  2  0
 14 16  1  0
 16 17  1  0
 17 18  2  0
 18 19  1  0
 19 20  2  0
 20 21  1  0
 21 22  2  0
 21 23  1  0
 23 24  1  0
 24 25  1  0
 25 26  2  0
 26 27  1  0
 27 28  2  0
 28 29  1  0
 29 30  2  0
 24 31  1  0
 13 32  1  0
 32 33  2  0
  6 34  1  0
 34 35  1  0
 35  3  1  0
 33  7  1  0
 33 10  1  0
 22 17  1  0
 30 25  1  0
 31 20  1  0
M  END
>  <name>  (1245) 
P142180

>  <alias>  (1245) 
None

>  <smina_score_min>  (1245) 
-9.177

>  <exports>  (1245) 
['/opt/xchem-fragalysis-2/maxwin/BulkDock/OUTPUTS/openbind_xx01zvns2b_c2_elabs_1LOUTNY.sdf', '/opt/xchem-fragalysis-2/maxwin/BulkDock/OUTPUTS/openbind_xx01zvns2b_c2_elabs_1LSYIIV.sdf']

>  <tags>  (1245) 
syndirella_placed,openbind_xx01zvns2b_c2_elabs,openbind_xx01zvns2b_c2_elabs_scored_6.2plus,syndirella_product,openbind_xx01zvns2b_c2_elabs_scored,openbind_xx01zvns2b_c2_elabs_scored_top80percent,BulkDock Fragalysis export

>  <subsites>  (1245) 
1 - Z4590/B/203/1

>  <smiles>  (1245) 
CCN1CCC(c2c[nH]c3ccc(C(=O)Nc4ccc5c(c4)CN(c4ccccc4)C5)cc23)CC1

>  <HIPPO Pose ID>  (1245) 
142180

>  <energy_score>  (1245) 
-36.513403

>  <inchikey>  (1245) 
LGKABOSBGVUWDH-UHFFFAOYSA-N

>  <gnina_score_min>  (1245) 
6.266

>  <gnina_score>  (1245) 
6.231

>  <ref_mols>  (1245) 
Z4161a

>  <HIPPO Compound ID>  (1245) 
199803

>  <distance_score>  (1245) 
1.222512

>  <rmsd(smina/fragmenstein)>  (1245) 
0.889

>  <ref_pdb>  (1245) 
Z4161a

>  <inspiration_score>  (1245) 
None

$$$$
P142182
     RDKit          3D

 37 42  0  0  0  0  0  0  0  0999 V2000
   -0.3429    9.3102  -16.2141 C   0  0  0  0  0  0  0  0  0  0  0  0
   -0.3814    7.9851  -16.9668 C   0  0  0  0  0  0  0  0  0  0  0  0
   -1.7074    7.3433  -16.9544 N   0  0  0  0  0  0  0  0  0  0  0  0
   -2.7034    8.1225  -17.7057 C   0  0  0  0  0  0  0  0  0  0  0  0
   -4.0758    7.4465  -17.7037 C   0  0  0  0  0  0  0  0  0  0  0  0
   -3.9760    6.0233  -18.2585 C   0  0  0  0  0  0  0  0  0  0  0  0
   -5.3080    5.3321  -18.3443 C   0  0  0  0  0  0  0  0  0  0  0  0
   -5.9006    4.9251  -19.5197 C   0  0  0  0  0  0  0  0  0  0  0  0
   -7.1310    4.3942  -19.2385 N   0  0  0  0  0  0  0  0  0  0  0  0
   -7.3584    4.4188  -17.8854 C   0  0  0  0  0  0  0  0  0  0  0  0
   -8.4825    4.0065  -17.1543 C   0  0  0  0  0  0  0  0  0  0  0  0
   -8.4857    4.2546  -15.7810 C   0  0  0  0  0  0  0  0  0  0  0  0
   -7.3849    4.8660  -15.1854 C   0  0  0  0  0  0  0  0  0  0  0  0
   -7.4717    5.4126  -13.8219 C   0  0  0  0  0  0  0  0  0  0  0  0
   -7.2716    6.5560  -13.6954 O   0  0  0  0  0  0  0  0  0  0  0  0
   -7.8128    4.3350  -12.7723 N   0  0  0  0  0  0  0  0  0  0  0  0
   -8.0633    4.4489  -11.4109 C   0  0  0  0  0  0  0  0  0  0  0  0
   -7.9583    5.7292  -10.8255 C   0  0  0  0  0  0  0  0  0  0  0  0
   -8.1522    5.9196   -9.4695 C   0  0  0  0  0  0  0  0  0  0  0  0
   -8.4344    4.7971   -8.7360 C   0  0  0  0  0  0  0  0  0  0  0  0
   -8.5451    3.5117   -9.2774 C   0  0  0  0  0  0  0  0  0  0  0  0
   -8.3750    3.3211  -10.6389 C   0  0  0  0  0  0  0  0  0  0  0  0
   -8.8329    2.5396   -8.1787 C   0  0  0  0  0  0  0  0  0  0  0  0
   -8.7365    3.4033   -7.0012 N   0  0  0  0  0  0  0  0  0  0  0  0
   -8.8343    2.9303   -5.6494 C   0  0  2  0  0  0  0  0  0  0  0  0
  -10.0884    3.3768   -4.9049 C   0  0  0  0  0  0  0  0  0  0  0  0
   -9.5567    3.9604   -3.6241 C   0  0  0  0  0  0  0  0  0  0  0  0
  -10.2093    4.4643   -2.7229 O   0  0  0  0  0  0  0  0  0  0  0  0
   -8.2126    3.8805   -3.5910 N   0  0  0  0  0  0  0  0  0  0  0  0
   -7.6925    3.4730   -4.7722 C   0  0  0  0  0  0  0  0  0  0  0  0
   -6.4999    3.5970   -5.0232 O   0  0  0  0  0  0  0  0  0  0  0  0
   -8.6255    4.7336   -7.2985 C   0  0  0  0  0  0  0  0  0  0  0  0
   -8.6535    5.6826   -6.5381 O   0  0  0  0  0  0  0  0  0  0  0  0
   -6.2377    5.2043  -15.9137 C   0  0  0  0  0  0  0  0  0  0  0  0
   -6.2309    5.0014  -17.3006 C   0  0  0  0  0  0  0  0  0  0  0  0
   -2.9243    5.2331  -17.4816 C   0  0  0  0  0  0  0  0  0  0  0  0
   -1.5893    5.9771  -17.4979 C   0  0  0  0  0  0  0  0  0  0  0  0
  1  2  1  0
  2  3  1  0
  3  4  1  0
  4  5  1  0
  5  6  1  0
  6  7  1  0
  7  8  2  0
  8  9  1  0
  9 10  1  0
 10 11  2  0
 11 12  1  0
 12 13  2  0
 13 14  1  0
 14 15  2  0
 14 16  1  0
 16 17  1  0
 17 18  2  0
 18 19  1  0
 19 20  2  0
 20 21  1  0
 21 22  2  0
 21 23  1  0
 23 24  1  0
 25 24  1  6
 25 26  1  0
 26 27  1  0
 27 28  2  0
 27 29  1  0
 29 30  1  0
 30 31  2  0
 24 32  1  0
 32 33  2  0
 13 34  1  0
 34 35  2  0
  6 36  1  0
 36 37  1  0
 37  3  1  0
 35  7  1  0
 35 10  1  0
 22 17  1  0
 30 25  1  0
 32 20  1  0
M  END
>  <name>  (1246) 
P142182

>  <alias>  (1246) 
None

>  <smina_score_min>  (1246) 
-9.105

>  <exports>  (1246) 
['/opt/xchem-fragalysis-2/maxwin/BulkDock/OUTPUTS/openbind_xx01zvns2b_c2_elabs_1LOUTNY.sdf', '/opt/xchem-fragalysis-2/maxwin/BulkDock/OUTPUTS/openbind_xx01zvns2b_c2_elabs_1LSYIIV.sdf']

>  <tags>  (1246) 
syndirella_placed,openbind_xx01zvns2b_c2_elabs,openbind_xx01zvns2b_c2_elabs_scored_6.2plus,syndirella_product,openbind_xx01zvns2b_c2_elabs_scored,openbind_xx01zvns2b_c2_elabs_scored_top80percent,BulkDock Fragalysis export

>  <subsites>  (1246) 
1 - Z4590/B/203/1

>  <smiles>  (1246) 
CCN1CCC(c2c[nH]c3ccc(C(=O)Nc4ccc5c(c4)CN([C@@H]4CC(=O)NC4=O)C5=O)cc23)CC1

>  <HIPPO Pose ID>  (1246) 
142182

>  <energy_score>  (1246) 
-50.595071

>  <inchikey>  (1246) 
BUNLDZWOBNZACG-XMMPIXPASA-N

>  <gnina_score_min>  (1246) 
6.383

>  <gnina_score>  (1246) 
6.408

>  <ref_mols>  (1246) 
Z4161a

>  <HIPPO Compound ID>  (1246) 
199810

>  <distance_score>  (1246) 
0.70712

>  <rmsd(smina/fragmenstein)>  (1246) 
0.805

>  <ref_pdb>  (1246) 
Z4161a

>  <inspiration_score>  (1246) 
None

$$$$
P142185
     RDKit          3D

 38 43  0  0  0  0  0  0  0  0999 V2000
   -0.3249    9.2990  -16.2149 C   0  0  0  0  0  0  0  0  0  0  0  0
   -0.3548    7.9782  -16.9756 C   0  0  0  0  0  0  0  0  0  0  0  0
   -1.6803    7.3357  -16.9800 N   0  0  0  0  0  0  0  0  0  0  0  0
   -1.5570    5.9724  -17.5297 C   0  0  0  0  0  0  0  0  0  0  0  0
   -2.8917    5.2279  -17.5263 C   0  0  0  0  0  0  0  0  0  0  0  0
   -3.9385    6.0211  -18.3075 C   0  0  0  0  0  0  0  0  0  0  0  0
   -5.2711    5.3325  -18.3985 C   0  0  0  0  0  0  0  0  0  0  0  0
   -5.8668    4.9298  -19.5732 C   0  0  0  0  0  0  0  0  0  0  0  0
   -7.0987    4.4019  -19.2897 N   0  0  0  0  0  0  0  0  0  0  0  0
   -7.3244    4.4263  -17.9369 C   0  0  0  0  0  0  0  0  0  0  0  0
   -8.4486    4.0186  -17.2036 C   0  0  0  0  0  0  0  0  0  0  0  0
   -8.4432    4.2609  -15.8296 C   0  0  0  0  0  0  0  0  0  0  0  0
   -7.3336    4.8614  -15.2375 C   0  0  0  0  0  0  0  0  0  0  0  0
   -7.3940    5.3812  -13.8632 C   0  0  0  0  0  0  0  0  0  0  0  0
   -7.0970    6.4984  -13.7003 O   0  0  0  0  0  0  0  0  0  0  0  0
   -7.8397    4.3079  -12.8507 N   0  0  0  0  0  0  0  0  0  0  0  0
   -8.0954    4.4030  -11.4921 C   0  0  0  0  0  0  0  0  0  0  0  0
   -8.0090    5.6796  -10.8970 C   0  0  0  0  0  0  0  0  0  0  0  0
   -8.2369    5.8564   -9.5471 C   0  0  0  0  0  0  0  0  0  0  0  0
   -8.5405    4.7252   -8.8348 C   0  0  0  0  0  0  0  0  0  0  0  0
   -8.6231    3.4430   -9.3824 C   0  0  0  0  0  0  0  0  0  0  0  0
   -8.4130    3.2649  -10.7380 C   0  0  0  0  0  0  0  0  0  0  0  0
   -8.9312    2.4630   -8.2969 C   0  0  0  0  0  0  0  0  0  0  0  0
   -8.9452    3.3318   -7.1184 N   0  0  0  0  0  0  0  0  0  0  0  0
   -8.8485    2.8212   -5.7703 C   0  0  1  0  0  0  0  0  0  0  0  0
   -7.5973    3.3595   -5.0550 C   0  0  0  0  0  0  0  0  0  0  0  0
   -7.8177    4.4643   -4.0416 C   0  0  2  0  0  0  0  0  0  0  0  0
   -6.6952    4.5461   -3.2653 F   0  0  0  0  0  0  0  0  0  0  0  0
   -8.9984    4.1362   -3.1598 C   0  0  0  0  0  0  0  0  0  0  0  0
  -10.1755    3.8527   -3.9313 N   0  0  0  0  0  0  0  0  0  0  0  0
  -10.1769    3.0502   -5.0402 C   0  0  0  0  0  0  0  0  0  0  0  0
  -11.2539    2.6124   -5.4413 O   0  0  0  0  0  0  0  0  0  0  0  0
   -8.7918    4.6584   -7.4107 C   0  0  0  0  0  0  0  0  0  0  0  0
   -8.7959    5.6205   -6.6669 O   0  0  0  0  0  0  0  0  0  0  0  0
   -6.1898    5.1977  -15.9693 C   0  0  0  0  0  0  0  0  0  0  0  0
   -6.1923    5.0015  -17.3552 C   0  0  0  0  0  0  0  0  0  0  0  0
   -4.0413    7.4434  -17.7496 C   0  0  0  0  0  0  0  0  0  0  0  0
   -2.6689    8.1183  -17.7373 C   0  0  0  0  0  0  0  0  0  0  0  0
  1  2  1  0
  2  3  1  0
  3  4  1  0
  4  5  1  0
  5  6  1  0
  6  7  1  0
  7  8  2  0
  8  9  1  0
  9 10  1  0
 10 11  2  0
 11 12  1  0
 12 13  2  0
 13 14  1  0
 14 15  2  0
 14 16  1  0
 16 17  1  0
 17 18  2  0
 18 19  1  0
 19 20  2  0
 20 21  1  0
 21 22  2  0
 21 23  1  0
 23 24  1  0
 25 24  1  6
 25 26  1  0
 26 27  1  0
 27 28  1  1
 27 29  1  0
 29 30  1  0
 30 31  1  0
 31 32  2  0
 24 33  1  0
 33 34  2  0
 13 35  1  0
 35 36  2  0
  6 37  1  0
 37 38  1  0
 38  3  1  0
 36  7  1  0
 36 10  1  0
 22 17  1  0
 31 25  1  0
 33 20  1  0
M  END
>  <name>  (1247) 
P142185

>  <alias>  (1247) 
None

>  <smina_score_min>  (1247) 
-9.172

>  <exports>  (1247) 
['/opt/xchem-fragalysis-2/maxwin/BulkDock/OUTPUTS/openbind_xx01zvns2b_c2_elabs_1LOUTNY.sdf', '/opt/xchem-fragalysis-2/maxwin/BulkDock/OUTPUTS/openbind_xx01zvns2b_c2_elabs_1LSYIIV.sdf']

>  <tags>  (1247) 
syndirella_placed,openbind_xx01zvns2b_c2_elabs,openbind_xx01zvns2b_c2_elabs_scored_6.2plus,syndirella_product,openbind_xx01zvns2b_c2_elabs_scored,openbind_xx01zvns2b_c2_elabs_scored_top80percent,BulkDock Fragalysis export

>  <subsites>  (1247) 
1 - Z4590/B/203/1

>  <smiles>  (1247) 
CCN1CCC(c2c[nH]c3ccc(C(=O)Nc4ccc5c(c4)CN([C@H]4C[C@H](F)CNC4=O)C5=O)cc23)CC1

>  <HIPPO Pose ID>  (1247) 
142185

>  <energy_score>  (1247) 
-64.440197

>  <inchikey>  (1247) 
PPPLPOHBHBVISX-FNZWTVRRSA-N

>  <gnina_score_min>  (1247) 
6.438

>  <gnina_score>  (1247) 
6.37

>  <ref_mols>  (1247) 
Z4161a

>  <HIPPO Compound ID>  (1247) 
199811

>  <distance_score>  (1247) 
0.694103

>  <rmsd(smina/fragmenstein)>  (1247) 
1.033

>  <ref_pdb>  (1247) 
Z4161a

>  <inspiration_score>  (1247) 
None

$$$$
P142188
     RDKit          3D

 38 43  0  0  0  0  0  0  0  0999 V2000
   -0.3204    9.3190  -16.2134 C   0  0  0  0  0  0  0  0  0  0  0  0
   -0.3453    7.9902  -16.9600 C   0  0  0  0  0  0  0  0  0  0  0  0
   -1.6728    7.3520  -16.9737 N   0  0  0  0  0  0  0  0  0  0  0  0
   -1.5466    5.9823  -17.5063 C   0  0  0  0  0  0  0  0  0  0  0  0
   -2.8835    5.2422  -17.5116 C   0  0  0  0  0  0  0  0  0  0  0  0
   -3.9174    6.0304  -18.3147 C   0  0  0  0  0  0  0  0  0  0  0  0
   -5.2497    5.3433  -18.4148 C   0  0  0  0  0  0  0  0  0  0  0  0
   -5.8311    4.9290  -19.5928 C   0  0  0  0  0  0  0  0  0  0  0  0
   -7.0637    4.3994  -19.3180 N   0  0  0  0  0  0  0  0  0  0  0  0
   -7.3055    4.4370  -17.9685 C   0  0  0  0  0  0  0  0  0  0  0  0
   -8.4367    4.0302  -17.2467 C   0  0  0  0  0  0  0  0  0  0  0  0
   -8.4538    4.2976  -15.8788 C   0  0  0  0  0  0  0  0  0  0  0  0
   -7.3591    4.9221  -15.2827 C   0  0  0  0  0  0  0  0  0  0  0  0
   -7.4509    5.4544  -13.9154 C   0  0  0  0  0  0  0  0  0  0  0  0
   -7.2144    6.5837  -13.7471 O   0  0  0  0  0  0  0  0  0  0  0  0
   -7.8326    4.3553  -12.9107 N   0  0  0  0  0  0  0  0  0  0  0  0
   -8.0871    4.4278  -11.5529 C   0  0  0  0  0  0  0  0  0  0  0  0
   -8.0620    5.6898  -10.9216 C   0  0  0  0  0  0  0  0  0  0  0  0
   -8.2574    5.8108   -9.5561 C   0  0  0  0  0  0  0  0  0  0  0  0
   -8.4588    4.6412   -8.8689 C   0  0  0  0  0  0  0  0  0  0  0  0
   -8.4870    3.3793   -9.4687 C   0  0  0  0  0  0  0  0  0  0  0  0
   -8.3227    3.2544  -10.8321 C   0  0  0  0  0  0  0  0  0  0  0  0
   -8.6763    2.3356   -8.4255 C   0  0  0  0  0  0  0  0  0  0  0  0
   -8.5697    3.1341   -7.2093 N   0  0  0  0  0  0  0  0  0  0  0  0
   -8.6866    2.5438   -5.9056 C   0  0  2  0  0  0  0  0  0  0  0  0
  -10.1342    2.4478   -5.4624 C   0  0  0  0  0  0  0  0  0  0  0  0
  -10.5476    3.6436   -4.6521 C   0  0  0  0  0  0  0  0  0  0  0  0
   -9.5897    4.0461   -3.5655 C   0  0  0  0  0  0  0  0  0  0  0  0
   -9.9191    4.7521   -2.6132 O   0  0  0  0  0  0  0  0  0  0  0  0
   -8.2980    3.6617   -3.7056 N   0  0  0  0  0  0  0  0  0  0  0  0
   -7.7465    3.2731   -4.8932 C   0  0  0  0  0  0  0  0  0  0  0  0
   -6.5572    3.5548   -5.0758 O   0  0  0  0  0  0  0  0  0  0  0  0
   -8.6185    4.4839   -7.4342 C   0  0  0  0  0  0  0  0  0  0  0  0
   -8.7419    5.3924   -6.6352 O   0  0  0  0  0  0  0  0  0  0  0  0
   -6.2030    5.2481  -15.9970 C   0  0  0  0  0  0  0  0  0  0  0  0
   -6.1847    5.0270  -17.3793 C   0  0  0  0  0  0  0  0  0  0  0  0
   -4.0232    7.4589  -17.7737 C   0  0  0  0  0  0  0  0  0  0  0  0
   -2.6491    8.1295  -17.7518 C   0  0  0  0  0  0  0  0  0  0  0  0
  1  2  1  0
  2  3  1  0
  3  4  1  0
  4  5  1  0
  5  6  1  0
  6  7  1  0
  7  8  2  0
  8  9  1  0
  9 10  1  0
 10 11  2  0
 11 12  1  0
 12 13  2  0
 13 14  1  0
 14 15  2  0
 14 16  1  0
 16 17  1  0
 17 18  2  0
 18 19  1  0
 19 20  2  0
 20 21  1  0
 21 22  2  0
 21 23  1  0
 23 24  1  0
 25 24  1  6
 25 26  1  0
 26 27  1  0
 27 28  1  0
 28 29  2  0
 28 30  1  0
 30 31  1  0
 31 32  2  0
 24 33  1  0
 33 34  2  0
 13 35  1  0
 35 36  2  0
  6 37  1  0
 37 38  1  0
 38  3  1  0
 36  7  1  0
 36 10  1  0
 22 17  1  0
 31 25  1  0
 33 20  1  0
M  END
>  <name>  (1248) 
P142188

>  <alias>  (1248) 
None

>  <smina_score_min>  (1248) 
-9.078

>  <exports>  (1248) 
['/opt/xchem-fragalysis-2/maxwin/BulkDock/OUTPUTS/openbind_xx01zvns2b_c2_elabs_1LOUTNY.sdf', '/opt/xchem-fragalysis-2/maxwin/BulkDock/OUTPUTS/openbind_xx01zvns2b_c2_elabs_1LSYIIV.sdf']

>  <tags>  (1248) 
syndirella_placed,openbind_xx01zvns2b_c2_elabs,openbind_xx01zvns2b_c2_elabs_scored_6.2plus,syndirella_product,openbind_xx01zvns2b_c2_elabs_scored,openbind_xx01zvns2b_c2_elabs_scored_top80percent,BulkDock Fragalysis export

>  <subsites>  (1248) 
1 - Z4590/B/203/1

>  <smiles>  (1248) 
CCN1CCC(c2c[nH]c3ccc(C(=O)Nc4ccc5c(c4)CN([C@@H]4CCC(=O)NC4=O)C5=O)cc23)CC1

>  <HIPPO Pose ID>  (1248) 
142188

>  <energy_score>  (1248) 
-61.922483

>  <inchikey>  (1248) 
RWYYQWAFIGUOFM-RUZDIDTESA-N

>  <gnina_score_min>  (1248) 
6.431

>  <gnina_score>  (1248) 
6.404

>  <ref_mols>  (1248) 
Z4161a

>  <HIPPO Compound ID>  (1248) 
199812

>  <distance_score>  (1248) 
0.703752

>  <rmsd(smina/fragmenstein)>  (1248) 
1.263

>  <ref_pdb>  (1248) 
Z4161a

>  <inspiration_score>  (1248) 
None

$$$$
P142191
     RDKit          3D

 38 43  0  0  0  0  0  0  0  0999 V2000
   -0.3396    9.3111  -16.2043 C   0  0  0  0  0  0  0  0  0  0  0  0
   -0.3724    7.9850  -16.9553 C   0  0  0  0  0  0  0  0  0  0  0  0
   -1.6978    7.3417  -16.9505 N   0  0  0  0  0  0  0  0  0  0  0  0
   -1.5745    5.9764  -17.4959 C   0  0  0  0  0  0  0  0  0  0  0  0
   -2.9087    5.2308  -17.4936 C   0  0  0  0  0  0  0  0  0  0  0  0
   -3.9523    6.0226  -18.2793 C   0  0  0  0  0  0  0  0  0  0  0  0
   -5.2815    5.3301  -18.3861 C   0  0  0  0  0  0  0  0  0  0  0  0
   -5.8584    4.9299  -19.5713 C   0  0  0  0  0  0  0  0  0  0  0  0
   -7.0913    4.3952  -19.3083 N   0  0  0  0  0  0  0  0  0  0  0  0
   -7.3378    4.4149  -17.9594 C   0  0  0  0  0  0  0  0  0  0  0  0
   -8.4727    4.0008  -17.2478 C   0  0  0  0  0  0  0  0  0  0  0  0
   -8.4947    4.2423  -15.8744 C   0  0  0  0  0  0  0  0  0  0  0  0
   -7.3999    4.8467  -15.2595 C   0  0  0  0  0  0  0  0  0  0  0  0
   -7.4941    5.3724  -13.8874 C   0  0  0  0  0  0  0  0  0  0  0  0
   -7.1734    6.4826  -13.7204 O   0  0  0  0  0  0  0  0  0  0  0  0
   -8.0420    4.3295  -12.8923 N   0  0  0  0  0  0  0  0  0  0  0  0
   -8.2150    4.3997  -11.5188 C   0  0  0  0  0  0  0  0  0  0  0  0
   -8.0253    5.6584  -10.8994 C   0  0  0  0  0  0  0  0  0  0  0  0
   -8.1536    5.8187   -9.5319 C   0  0  0  0  0  0  0  0  0  0  0  0
   -8.4674    4.6871   -8.8280 C   0  0  0  0  0  0  0  0  0  0  0  0
   -8.6677    3.4460   -9.4116 C   0  0  0  0  0  0  0  0  0  0  0  0
   -8.5537    3.2652  -10.7748 C   0  0  0  0  0  0  0  0  0  0  0  0
   -8.9593    2.5141   -8.3224 C   0  0  0  0  0  0  0  0  0  0  0  0
   -9.2815    1.3557   -8.4728 O   0  0  0  0  0  0  0  0  0  0  0  0
   -8.7969    3.2320   -7.1675 N   0  0  0  0  0  0  0  0  0  0  0  0
   -8.8647    2.6823   -5.8450 C   0  0  1  0  0  0  0  0  0  0  0  0
   -7.8120    3.2587   -4.8902 C   0  0  0  0  0  0  0  0  0  0  0  0
   -8.6118    3.8115   -3.7542 C   0  0  0  0  0  0  0  0  0  0  0  0
   -8.1446    4.2804   -2.7269 O   0  0  0  0  0  0  0  0  0  0  0  0
   -9.9276    3.6987   -4.0325 N   0  0  0  0  0  0  0  0  0  0  0  0
  -10.1769    3.0596   -5.2037 C   0  0  0  0  0  0  0  0  0  0  0  0
  -11.2932    2.8995   -5.6640 O   0  0  0  0  0  0  0  0  0  0  0  0
   -8.6278    4.5567   -7.4018 C   0  0  0  0  0  0  0  0  0  0  0  0
   -8.6050    5.4896   -6.6201 O   0  0  0  0  0  0  0  0  0  0  0  0
   -6.2417    5.1853  -15.9703 C   0  0  0  0  0  0  0  0  0  0  0  0
   -6.2178    4.9928  -17.3573 C   0  0  0  0  0  0  0  0  0  0  0  0
   -4.0613    7.4425  -17.7177 C   0  0  0  0  0  0  0  0  0  0  0  0
   -2.6906    8.1215  -17.7056 C   0  0  0  0  0  0  0  0  0  0  0  0
  1  2  1  0
  2  3  1  0
  3  4  1  0
  4  5  1  0
  5  6  1  0
  6  7  1  0
  7  8  2  0
  8  9  1  0
  9 10  1  0
 10 11  2  0
 11 12  1  0
 12 13  2  0
 13 14  1  0
 14 15  2  0
 14 16  1  0
 16 17  1  0
 17 18  2  0
 18 19  1  0
 19 20  2  0
 20 21  1  0
 21 22  2  0
 21 23  1  0
 23 24  2  0
 23 25  1  0
 26 25  1  6
 26 27  1  0
 27 28  1  0
 28 29  2  0
 28 30  1  0
 30 31  1  0
 31 32  2  0
 25 33  1  0
 33 34  2  0
 13 35  1  0
 35 36  2  0
  6 37  1  0
 37 38  1  0
 38  3  1  0
 36  7  1  0
 36 10  1  0
 22 17  1  0
 31 26  1  0
 33 20  1  0
M  END
>  <name>  (1249) 
P142191

>  <alias>  (1249) 
None

>  <smina_score_min>  (1249) 
-9.713

>  <exports>  (1249) 
['/opt/xchem-fragalysis-2/maxwin/BulkDock/OUTPUTS/openbind_xx01zvns2b_c2_elabs_1LOUTNY.sdf', '/opt/xchem-fragalysis-2/maxwin/BulkDock/OUTPUTS/openbind_xx01zvns2b_c2_elabs_1LSYIIV.sdf']

>  <tags>  (1249) 
syndirella_placed,openbind_xx01zvns2b_c2_elabs,openbind_xx01zvns2b_c2_elabs_scored_6.2plus,syndirella_product,openbind_xx01zvns2b_c2_elabs_scored,openbind_xx01zvns2b_c2_elabs_scored_top80percent,BulkDock Fragalysis export

>  <subsites>  (1249) 
1 - Z4590/B/203/1

>  <smiles>  (1249) 
CCN1CCC(c2c[nH]c3ccc(C(=O)Nc4ccc5c(c4)C(=O)N([C@H]4CC(=O)NC4=O)C5=O)cc23)CC1

>  <HIPPO Pose ID>  (1249) 
142191

>  <energy_score>  (1249) 
-67.788798

>  <inchikey>  (1249) 
XYEYPJKWOBBHIO-QHCPKHFHSA-N

>  <gnina_score_min>  (1249) 
6.403

>  <gnina_score>  (1249) 
6.327

>  <ref_mols>  (1249) 
Z4161a

>  <HIPPO Compound ID>  (1249) 
199813

>  <distance_score>  (1249) 
0.677058

>  <rmsd(smina/fragmenstein)>  (1249) 
0.808

>  <ref_pdb>  (1249) 
Z4161a

>  <inspiration_score>  (1249) 
None

$$$$
P142192
     RDKit          3D

 38 43  0  0  0  0  0  0  0  0999 V2000
   -0.3460    9.3446  -16.2398 C   0  0  0  0  0  0  0  0  0  0  0  0
   -0.3836    8.0067  -16.9693 C   0  0  0  0  0  0  0  0  0  0  0  0
   -1.7130    7.3728  -16.9567 N   0  0  0  0  0  0  0  0  0  0  0  0
   -2.6962    8.1365  -17.7397 C   0  0  0  0  0  0  0  0  0  0  0  0
   -4.0733    7.4700  -17.7313 C   0  0  0  0  0  0  0  0  0  0  0  0
   -3.9788    6.0303  -18.2425 C   0  0  0  0  0  0  0  0  0  0  0  0
   -5.3127    5.3405  -18.3124 C   0  0  0  0  0  0  0  0  0  0  0  0
   -5.9026    4.8992  -19.4776 C   0  0  0  0  0  0  0  0  0  0  0  0
   -7.1289    4.3670  -19.1827 N   0  0  0  0  0  0  0  0  0  0  0  0
   -7.3571    4.4293  -17.8303 C   0  0  0  0  0  0  0  0  0  0  0  0
   -8.4771    4.0252  -17.0896 C   0  0  0  0  0  0  0  0  0  0  0  0
   -8.4990    4.3438  -15.7312 C   0  0  0  0  0  0  0  0  0  0  0  0
   -7.4220    5.0176  -15.1579 C   0  0  0  0  0  0  0  0  0  0  0  0
   -7.5767    5.6783  -13.8473 C   0  0  0  0  0  0  0  0  0  0  0  0
   -7.4386    6.8344  -13.7999 O   0  0  0  0  0  0  0  0  0  0  0  0
   -7.8858    4.6664  -12.7357 N   0  0  0  0  0  0  0  0  0  0  0  0
   -8.1738    4.8623  -11.3948 C   0  0  0  0  0  0  0  0  0  0  0  0
   -8.4067    6.1678  -10.9058 C   0  0  0  0  0  0  0  0  0  0  0  0
   -8.5321    6.4299   -9.5388 C   0  0  0  0  0  0  0  0  0  0  0  0
   -8.3713    5.3661   -8.6965 C   0  0  0  0  0  0  0  0  0  0  0  0
   -8.1167    4.1111   -9.1909 C   0  0  0  0  0  0  0  0  0  0  0  0
   -8.0826    3.7856  -10.5272 C   0  0  0  0  0  0  0  0  0  0  0  0
   -7.5649    3.4426   -7.9816 C   0  0  2  0  0  0  0  0  0  0  0  0
   -8.6845    3.0128   -7.0343 C   0  0  0  0  0  0  0  0  0  0  0  0
   -9.0206    4.3659   -6.4499 C   0  0  0  0  0  0  0  0  0  0  0  0
   -8.0406    5.2274   -7.2420 C   0  0  1  0  0  0  0  0  0  0  0  0
   -6.7083    4.5145   -7.1995 N   0  0  0  0  0  0  0  0  0  0  0  0
   -5.4206    4.8067   -7.9097 C   0  0  0  0  0  0  0  0  0  0  0  0
   -5.1694    5.6110   -8.7257 O   0  0  0  0  0  0  0  0  0  0  0  0
   -4.4566    3.9972   -7.3682 O   0  0  0  0  0  0  0  0  0  0  0  0
   -3.0815    4.1139   -7.8351 C   0  0  0  0  0  0  0  0  0  0  0  0
   -2.9619    3.7107   -9.3107 C   0  0  0  0  0  0  0  0  0  0  0  0
   -2.5051    5.5124   -7.5683 C   0  0  0  0  0  0  0  0  0  0  0  0
   -2.2694    3.1127   -6.9984 C   0  0  0  0  0  0  0  0  0  0  0  0
   -6.2628    5.3167  -15.8831 C   0  0  0  0  0  0  0  0  0  0  0  0
   -6.2402    5.0469  -17.2607 C   0  0  0  0  0  0  0  0  0  0  0  0
   -2.9361    5.2565  -17.4368 C   0  0  0  0  0  0  0  0  0  0  0  0
   -1.5971    5.9921  -17.4614 C   0  0  0  0  0  0  0  0  0  0  0  0
  1  2  1  0
  2  3  1  0
  3  4  1  0
  4  5  1  0
  5  6  1  0
  6  7  1  0
  7  8  2  0
  8  9  1  0
  9 10  1  0
 10 11  2  0
 11 12  1  0
 12 13  2  0
 13 14  1  0
 14 15  2  0
 14 16  1  0
 16 17  1  0
 17 18  2  0
 18 19  1  0
 19 20  2  0
 20 21  1  0
 21 22  2  0
 21 23  1  0
 23 24  1  1
 24 25  1  0
 26 25  1  1
 26 27  1  0
 27 28  1  0
 28 29  2  0
 28 30  1  0
 30 31  1  0
 31 32  1  0
 31 33  1  0
 31 34  1  0
 13 35  1  0
 35 36  2  0
  6 37  1  0
 37 38  1  0
 38  3  1  0
 36  7  1  0
 36 10  1  0
 22 17  1  0
 27 23  1  0
 26 20  1  0
M  END
>  <name>  (1250) 
P142192

>  <alias>  (1250) 
None

>  <smina_score_min>  (1250) 
-8.055

>  <exports>  (1250) 
['/opt/xchem-fragalysis-2/maxwin/BulkDock/OUTPUTS/openbind_xx01zvns2b_c2_elabs_1LOUTNY.sdf', '/opt/xchem-fragalysis-2/maxwin/BulkDock/OUTPUTS/openbind_xx01zvns2b_c2_elabs_1LSYIIV.sdf']

>  <tags>  (1250) 
syndirella_placed,openbind_xx01zvns2b_c2_elabs,openbind_xx01zvns2b_c2_elabs_scored_6.2plus,syndirella_product,openbind_xx01zvns2b_c2_elabs_scored,openbind_xx01zvns2b_c2_elabs_scored_top80percent,BulkDock Fragalysis export

>  <subsites>  (1250) 
1 - Z4590/B/203/1

>  <smiles>  (1250) 
CCN1CCC(c2c[nH]c3ccc(C(=O)Nc4ccc5c(c4)[C@@H]4CC[C@H]5N4C(=O)OC(C)(C)C)cc23)CC1

>  <HIPPO Pose ID>  (1250) 
142192

>  <energy_score>  (1250) 
-6.443168

>  <inchikey>  (1250) 
WTMCSQUHCWMYCV-IZLXSDGUSA-N

>  <gnina_score_min>  (1250) 
6.516

>  <gnina_score>  (1250) 
6.683

>  <ref_mols>  (1250) 
Z4161a

>  <HIPPO Compound ID>  (1250) 
199814

>  <distance_score>  (1250) 
1.151284

>  <rmsd(smina/fragmenstein)>  (1250) 
1.024

>  <ref_pdb>  (1250) 
Z4161a

>  <inspiration_score>  (1250) 
None

$$$$
P142194
     RDKit          3D

 38 43  0  0  0  0  0  0  0  0999 V2000
   -0.3583    9.3161  -16.2006 C   0  0  0  0  0  0  0  0  0  0  0  0
   -0.3973    7.9884  -16.9483 C   0  0  0  0  0  0  0  0  0  0  0  0
   -1.7219    7.3430  -16.9287 N   0  0  0  0  0  0  0  0  0  0  0  0
   -1.6012    5.9777  -17.4750 C   0  0  0  0  0  0  0  0  0  0  0  0
   -2.9342    5.2297  -17.4653 C   0  0  0  0  0  0  0  0  0  0  0  0
   -3.9831    6.0209  -18.2440 C   0  0  0  0  0  0  0  0  0  0  0  0
   -5.3102    5.3244  -18.3534 C   0  0  0  0  0  0  0  0  0  0  0  0
   -5.8821    4.9285  -19.5428 C   0  0  0  0  0  0  0  0  0  0  0  0
   -7.1139    4.3887  -19.2873 N   0  0  0  0  0  0  0  0  0  0  0  0
   -7.3644    4.3988  -17.9389 C   0  0  0  0  0  0  0  0  0  0  0  0
   -8.5009    3.9763  -17.2343 C   0  0  0  0  0  0  0  0  0  0  0  0
   -8.5307    4.2072  -15.8593 C   0  0  0  0  0  0  0  0  0  0  0  0
   -7.4415    4.8101  -15.2356 C   0  0  0  0  0  0  0  0  0  0  0  0
   -7.5579    5.3506  -13.8724 C   0  0  0  0  0  0  0  0  0  0  0  0
   -7.3218    6.4874  -13.7414 O   0  0  0  0  0  0  0  0  0  0  0  0
   -8.0255    4.3001  -12.8417 N   0  0  0  0  0  0  0  0  0  0  0  0
   -8.2026    4.4009  -11.4691 C   0  0  0  0  0  0  0  0  0  0  0  0
   -7.9888    5.6710  -10.8828 C   0  0  0  0  0  0  0  0  0  0  0  0
   -8.1204    5.8729   -9.5226 C   0  0  0  0  0  0  0  0  0  0  0  0
   -8.4623    4.7701   -8.7868 C   0  0  0  0  0  0  0  0  0  0  0  0
   -8.6819    3.5163   -9.3303 C   0  0  0  0  0  0  0  0  0  0  0  0
   -8.5629    3.2942  -10.6902 C   0  0  0  0  0  0  0  0  0  0  0  0
   -8.9735    2.6248   -8.2048 C   0  0  0  0  0  0  0  0  0  0  0  0
   -9.2344    1.4470   -8.3262 O   0  0  0  0  0  0  0  0  0  0  0  0
   -8.8480    3.3924   -7.0701 N   0  0  0  0  0  0  0  0  0  0  0  0
   -8.8022    2.8680   -5.7250 C   0  0  1  0  0  0  0  0  0  0  0  0
   -7.5768    3.3970   -4.9434 C   0  0  0  0  0  0  0  0  0  0  0  0
   -7.7955    4.4173   -3.8268 C   0  0  0  0  0  0  0  0  0  0  0  0
   -9.2113    4.9168   -3.7182 C   0  0  0  0  0  0  0  0  0  0  0  0
  -10.1411    3.8425   -3.8881 N   0  0  0  0  0  0  0  0  0  0  0  0
  -10.1390    3.0779   -5.0256 C   0  0  0  0  0  0  0  0  0  0  0  0
  -11.2122    2.6485   -5.4379 O   0  0  0  0  0  0  0  0  0  0  0  0
   -8.6023    4.6937   -7.3555 C   0  0  0  0  0  0  0  0  0  0  0  0
   -8.4494    5.6543   -6.6235 O   0  0  0  0  0  0  0  0  0  0  0  0
   -6.2805    5.1598  -15.9395 C   0  0  0  0  0  0  0  0  0  0  0  0
   -6.2483    4.9766  -17.3286 C   0  0  0  0  0  0  0  0  0  0  0  0
   -4.0933    7.4376  -17.6759 C   0  0  0  0  0  0  0  0  0  0  0  0
   -2.7243    8.1212  -17.6728 C   0  0  0  0  0  0  0  0  0  0  0  0
  1  2  1  0
  2  3  1  0
  3  4  1  0
  4  5  1  0
  5  6  1  0
  6  7  1  0
  7  8  2  0
  8  9  1  0
  9 10  1  0
 10 11  2  0
 11 12  1  0
 12 13  2  0
 13 14  1  0
 14 15  2  0
 14 16  1  0
 16 17  1  0
 17 18  2  0
 18 19  1  0
 19 20  2  0
 20 21  1  0
 21 22  2  0
 21 23  1  0
 23 24  2  0
 23 25  1  0
 26 25  1  6
 26 27  1  0
 27 28  1  0
 28 29  1  0
 29 30  1  0
 30 31  1  0
 31 32  2  0
 25 33  1  0
 33 34  2  0
 13 35  1  0
 35 36  2  0
  6 37  1  0
 37 38  1  0
 38  3  1  0
 36  7  1  0
 36 10  1  0
 22 17  1  0
 31 26  1  0
 33 20  1  0
M  END
>  <name>  (1251) 
P142194

>  <alias>  (1251) 
None

>  <smina_score_min>  (1251) 
-9.75

>  <exports>  (1251) 
['/opt/xchem-fragalysis-2/maxwin/BulkDock/OUTPUTS/openbind_xx01zvns2b_c2_elabs_1LOUTNY.sdf', '/opt/xchem-fragalysis-2/maxwin/BulkDock/OUTPUTS/openbind_xx01zvns2b_c2_elabs_1LSYIIV.sdf']

>  <tags>  (1251) 
syndirella_placed,openbind_xx01zvns2b_c2_elabs,openbind_xx01zvns2b_c2_elabs_scored_6.2plus,syndirella_product,openbind_xx01zvns2b_c2_elabs_scored,openbind_xx01zvns2b_c2_elabs_scored_top80percent,BulkDock Fragalysis export

>  <subsites>  (1251) 
1 - Z4590/B/203/1

>  <smiles>  (1251) 
CCN1CCC(c2c[nH]c3ccc(C(=O)Nc4ccc5c(c4)C(=O)N([C@H]4CCCNC4=O)C5=O)cc23)CC1

>  <HIPPO Pose ID>  (1251) 
142194

>  <energy_score>  (1251) 
-86.215749

>  <inchikey>  (1251) 
XPONGAXRXUVMTM-VWLOTQADSA-N

>  <gnina_score_min>  (1251) 
6.431

>  <gnina_score>  (1251) 
6.345

>  <ref_mols>  (1251) 
Z4161a

>  <HIPPO Compound ID>  (1251) 
199816

>  <distance_score>  (1251) 
0.69844

>  <rmsd(smina/fragmenstein)>  (1251) 
0.795

>  <ref_pdb>  (1251) 
Z4161a

>  <inspiration_score>  (1251) 
None

$$$$
P142196
     RDKit          3D

 38 43  0  0  0  0  0  0  0  0999 V2000
   -0.3488    9.2997  -16.2169 C   0  0  0  0  0  0  0  0  0  0  0  0
   -0.3736    7.9768  -16.9741 C   0  0  0  0  0  0  0  0  0  0  0  0
   -1.6978    7.3312  -16.9809 N   0  0  0  0  0  0  0  0  0  0  0  0
   -2.6857    8.1094  -17.7439 C   0  0  0  0  0  0  0  0  0  0  0  0
   -4.0560    7.4299  -17.7625 C   0  0  0  0  0  0  0  0  0  0  0  0
   -3.9457    6.0077  -18.3195 C   0  0  0  0  0  0  0  0  0  0  0  0
   -5.2756    5.3147  -18.4208 C   0  0  0  0  0  0  0  0  0  0  0  0
   -5.8612    4.9103  -19.5999 C   0  0  0  0  0  0  0  0  0  0  0  0
   -7.0938    4.3784  -19.3258 N   0  0  0  0  0  0  0  0  0  0  0  0
   -7.3325    4.4056  -17.9758 C   0  0  0  0  0  0  0  0  0  0  0  0
   -8.4636    3.9993  -17.2518 C   0  0  0  0  0  0  0  0  0  0  0  0
   -8.4739    4.2481  -15.8791 C   0  0  0  0  0  0  0  0  0  0  0  0
   -7.3706    4.8515  -15.2806 C   0  0  0  0  0  0  0  0  0  0  0  0
   -7.4439    5.4005  -13.9196 C   0  0  0  0  0  0  0  0  0  0  0  0
   -7.1102    6.5109  -13.7807 O   0  0  0  0  0  0  0  0  0  0  0  0
   -7.9199    4.3631  -12.8838 N   0  0  0  0  0  0  0  0  0  0  0  0
   -8.1667    4.4941  -11.5271 C   0  0  0  0  0  0  0  0  0  0  0  0
   -8.0255    5.7844  -10.9699 C   0  0  0  0  0  0  0  0  0  0  0  0
   -8.1548    6.0092   -9.6134 C   0  0  0  0  0  0  0  0  0  0  0  0
   -8.4207    4.9143   -8.8345 C   0  0  0  0  0  0  0  0  0  0  0  0
   -8.6014    3.6392   -9.3790 C   0  0  0  0  0  0  0  0  0  0  0  0
   -8.4865    3.3930  -10.7329 C   0  0  0  0  0  0  0  0  0  0  0  0
   -8.8351    2.7228   -8.2554 C   0  0  0  0  0  0  0  0  0  0  0  0
   -9.1048    1.5459   -8.3577 O   0  0  0  0  0  0  0  0  0  0  0  0
   -8.6525    3.4823   -7.1062 N   0  0  0  0  0  0  0  0  0  0  0  0
   -8.7152    2.9593   -5.7623 C   0  0  1  0  0  0  0  0  0  0  0  0
   -7.5707    3.5137   -4.9034 C   0  0  0  0  0  0  0  0  0  0  0  0
   -7.9200    4.7508   -4.0974 C   0  0  0  0  0  0  0  0  0  0  0  0
   -9.1964    4.5723   -3.3330 C   0  0  0  0  0  0  0  0  0  0  0  0
   -9.4597    5.2482   -2.3420 O   0  0  0  0  0  0  0  0  0  0  0  0
  -10.1048    3.7123   -3.8749 N   0  0  0  0  0  0  0  0  0  0  0  0
  -10.0861    3.2579   -5.1670 C   0  0  0  0  0  0  0  0  0  0  0  0
  -11.1399    3.1894   -5.7910 O   0  0  0  0  0  0  0  0  0  0  0  0
   -8.5177    4.8844   -7.3665 C   0  0  0  0  0  0  0  0  0  0  0  0
   -6.2159    5.1781  -16.0015 C   0  0  0  0  0  0  0  0  0  0  0  0
   -6.2054    4.9814  -17.3860 C   0  0  0  0  0  0  0  0  0  0  0  0
   -2.9015    5.2187  -17.5309 C   0  0  0  0  0  0  0  0  0  0  0  0
   -1.5688    5.9670  -17.5277 C   0  0  0  0  0  0  0  0  0  0  0  0
  1  2  1  0
  2  3  1  0
  3  4  1  0
  4  5  1  0
  5  6  1  0
  6  7  1  0
  7  8  2  0
  8  9  1  0
  9 10  1  0
 10 11  2  0
 11 12  1  0
 12 13  2  0
 13 14  1  0
 14 15  2  0
 14 16  1  0
 16 17  1  0
 17 18  2  0
 18 19  1  0
 19 20  2  0
 20 21  1  0
 21 22  2  0
 21 23  1  0
 23 24  2  0
 23 25  1  0
 26 25  1  6
 26 27  1  0
 27 28  1  0
 28 29  1  0
 29 30  2  0
 29 31  1  0
 31 32  1  0
 32 33  2  0
 25 34  1  0
 13 35  1  0
 35 36  2  0
  6 37  1  0
 37 38  1  0
 38  3  1  0
 36  7  1  0
 36 10  1  0
 22 17  1  0
 32 26  1  0
 34 20  1  0
M  END
>  <name>  (1252) 
P142196

>  <alias>  (1252) 
None

>  <smina_score_min>  (1252) 
-9.785

>  <exports>  (1252) 
['/opt/xchem-fragalysis-2/maxwin/BulkDock/OUTPUTS/openbind_xx01zvns2b_c2_elabs_1LOUTNY.sdf', '/opt/xchem-fragalysis-2/maxwin/BulkDock/OUTPUTS/openbind_xx01zvns2b_c2_elabs_1LSYIIV.sdf']

>  <tags>  (1252) 
syndirella_placed,openbind_xx01zvns2b_c2_elabs,openbind_xx01zvns2b_c2_elabs_scored_6.2plus,syndirella_product,openbind_xx01zvns2b_c2_elabs_scored,openbind_xx01zvns2b_c2_elabs_scored_top80percent,BulkDock Fragalysis export

>  <subsites>  (1252) 
1 - Z4590/B/203/1

>  <smiles>  (1252) 
CCN1CCC(c2c[nH]c3ccc(C(=O)Nc4ccc5c(c4)C(=O)N([C@H]4CCC(=O)NC4=O)C5)cc23)CC1

>  <HIPPO Pose ID>  (1252) 
142196

>  <energy_score>  (1252) 
-62.25641

>  <inchikey>  (1252) 
YVUSXUBCZOCCIW-VWLOTQADSA-N

>  <gnina_score_min>  (1252) 
6.445

>  <gnina_score>  (1252) 
6.356

>  <ref_mols>  (1252) 
Z4161a

>  <HIPPO Compound ID>  (1252) 
199817

>  <distance_score>  (1252) 
0.775494

>  <rmsd(smina/fragmenstein)>  (1252) 
0.731

>  <ref_pdb>  (1252) 
Z4161a

>  <inspiration_score>  (1252) 
None

$$$$
P142198
     RDKit          3D

 39 44  0  0  0  0  0  0  0  0999 V2000
   -0.3454    9.2878  -16.2033 C   0  0  0  0  0  0  0  0  0  0  0  0
   -0.3761    7.9711  -16.9709 C   0  0  0  0  0  0  0  0  0  0  0  0
   -1.6984    7.3209  -16.9668 N   0  0  0  0  0  0  0  0  0  0  0  0
   -1.5720    5.9640  -17.5324 C   0  0  0  0  0  0  0  0  0  0  0  0
   -2.9024    5.2113  -17.5291 C   0  0  0  0  0  0  0  0  0  0  0  0
   -3.9572    6.0073  -18.2959 C   0  0  0  0  0  0  0  0  0  0  0  0
   -5.2857    5.3119  -18.3971 C   0  0  0  0  0  0  0  0  0  0  0  0
   -5.8785    4.9282  -19.5794 C   0  0  0  0  0  0  0  0  0  0  0  0
   -7.1097    4.3926  -19.3076 N   0  0  0  0  0  0  0  0  0  0  0  0
   -7.3386    4.3926  -17.9554 C   0  0  0  0  0  0  0  0  0  0  0  0
   -8.4658    3.9735  -17.2320 C   0  0  0  0  0  0  0  0  0  0  0  0
   -8.4625    4.1840  -15.8528 C   0  0  0  0  0  0  0  0  0  0  0  0
   -7.3502    4.7635  -15.2480 C   0  0  0  0  0  0  0  0  0  0  0  0
   -7.4315    5.3040  -13.8868 C   0  0  0  0  0  0  0  0  0  0  0  0
   -7.1651    6.4358  -13.7679 O   0  0  0  0  0  0  0  0  0  0  0  0
   -7.8710    4.2624  -12.8336 N   0  0  0  0  0  0  0  0  0  0  0  0
   -8.1554    4.4109  -11.4837 C   0  0  0  0  0  0  0  0  0  0  0  0
   -8.1811    5.7456  -11.0130 C   0  0  0  0  0  0  0  0  0  0  0  0
   -8.3971    6.0406   -9.6887 C   0  0  0  0  0  0  0  0  0  0  0  0
   -8.5662    4.9595   -8.8697 C   0  0  0  0  0  0  0  0  0  0  0  0
   -8.5474    3.6376   -9.2801 C   0  0  0  0  0  0  0  0  0  0  0  0
   -8.3638    3.3243  -10.6173 C   0  0  0  0  0  0  0  0  0  0  0  0
   -8.6464    2.8372   -8.0440 C   0  0  0  0  0  0  0  0  0  0  0  0
   -8.7507    1.6304   -8.0139 O   0  0  0  0  0  0  0  0  0  0  0  0
   -8.5719    3.7392   -7.0080 N   0  0  0  0  0  0  0  0  0  0  0  0
   -8.3937    3.4764   -5.5965 C   0  0  1  0  0  0  0  0  0  0  0  0
   -7.3693    4.4586   -4.9924 C   0  0  0  0  0  0  0  0  0  0  0  0
   -7.2002    4.2847   -3.5059 C   0  0  0  0  0  0  0  0  0  0  0  0
   -8.5116    4.0890   -2.7798 C   0  0  0  0  0  0  0  0  0  0  0  0
   -8.5617    4.0060   -1.5543 O   0  0  0  0  0  0  0  0  0  0  0  0
   -9.6401    3.9914   -3.5477 N   0  0  0  0  0  0  0  0  0  0  0  0
   -9.7224    3.6416   -4.8778 C   0  0  0  0  0  0  0  0  0  0  0  0
  -10.8176    3.4622   -5.4010 O   0  0  0  0  0  0  0  0  0  0  0  0
   -8.7234    5.0114   -7.4478 C   0  0  0  0  0  0  0  0  0  0  0  0
   -8.9277    6.0454   -6.8383 O   0  0  0  0  0  0  0  0  0  0  0  0
   -6.2046    5.1166  -15.9720 C   0  0  0  0  0  0  0  0  0  0  0  0
   -6.2058    4.9536  -17.3615 C   0  0  0  0  0  0  0  0  0  0  0  0
   -4.0672    7.4204  -17.7167 C   0  0  0  0  0  0  0  0  0  0  0  0
   -2.6996    8.1055  -17.7056 C   0  0  0  0  0  0  0  0  0  0  0  0
  1  2  1  0
  2  3  1  0
  3  4  1  0
  4  5  1  0
  5  6  1  0
  6  7  1  0
  7  8  2  0
  8  9  1  0
  9 10  1  0
 10 11  2  0
 11 12  1  0
 12 13  2  0
 13 14  1  0
 14 15  2  0
 14 16  1  0
 16 17  1  0
 17 18  2  0
 18 19  1  0
 19 20  2  0
 20 21  1  0
 21 22  2  0
 21 23  1  0
 23 24  2  0
 23 25  1  0
 26 25  1  6
 26 27  1  0
 27 28  1  0
 28 29  1  0
 29 30  2  0
 29 31  1  0
 31 32  1  0
 32 33  2  0
 25 34  1  0
 34 35  2  0
 13 36  1  0
 36 37  2  0
  6 38  1  0
 38 39  1  0
 39  3  1  0
 37  7  1  0
 37 10  1  0
 22 17  1  0
 32 26  1  0
 34 20  1  0
M  END
>  <name>  (1253) 
P142198

>  <alias>  (1253) 
None

>  <smina_score_min>  (1253) 
-10.227

>  <exports>  (1253) 
['/opt/xchem-fragalysis-2/maxwin/BulkDock/OUTPUTS/openbind_xx01zvns2b_c2_elabs_1LOUTNY.sdf', '/opt/xchem-fragalysis-2/maxwin/BulkDock/OUTPUTS/openbind_xx01zvns2b_c2_elabs_1LSYIIV.sdf']

>  <tags>  (1253) 
syndirella_placed,openbind_xx01zvns2b_c2_elabs,openbind_xx01zvns2b_c2_elabs_scored_6.2plus,syndirella_product,openbind_xx01zvns2b_c2_elabs_scored,openbind_xx01zvns2b_c2_elabs_scored_top80percent,BulkDock Fragalysis export

>  <subsites>  (1253) 
1 - Z4590/B/203/1

>  <smiles>  (1253) 
CCN1CCC(c2c[nH]c3ccc(C(=O)Nc4ccc5c(c4)C(=O)N([C@H]4CCC(=O)NC4=O)C5=O)cc23)CC1

>  <HIPPO Pose ID>  (1253) 
142198

>  <energy_score>  (1253) 
-52.484248

>  <inchikey>  (1253) 
GKPYIXJSKHBSLV-DEOSSOPVSA-N

>  <gnina_score_min>  (1253) 
6.316

>  <gnina_score>  (1253) 
6.318

>  <ref_mols>  (1253) 
Z4161a

>  <HIPPO Compound ID>  (1253) 
199821

>  <distance_score>  (1253) 
0.793862

>  <rmsd(smina/fragmenstein)>  (1253) 
0.709

>  <ref_pdb>  (1253) 
Z4161a

>  <inspiration_score>  (1253) 
None

$$$$
P142199
     RDKit          3D

 39 44  0  0  0  0  0  0  0  0999 V2000
   -0.3476    9.2732  -16.2433 C   0  0  0  0  0  0  0  0  0  0  0  0
   -0.3456    7.9591  -17.0164 C   0  0  0  0  0  0  0  0  0  0  0  0
   -1.6653    7.3067  -17.0611 N   0  0  0  0  0  0  0  0  0  0  0  0
   -1.5178    5.9455  -17.6102 C   0  0  0  0  0  0  0  0  0  0  0  0
   -2.8456    5.1896  -17.6273 C   0  0  0  0  0  0  0  0  0  0  0  0
   -3.8922    5.9694  -18.4244 C   0  0  0  0  0  0  0  0  0  0  0  0
   -5.2246    5.2762  -18.5021 C   0  0  0  0  0  0  0  0  0  0  0  0
   -5.8430    4.8655  -19.6613 C   0  0  0  0  0  0  0  0  0  0  0  0
   -7.0736    4.3453  -19.3500 N   0  0  0  0  0  0  0  0  0  0  0  0
   -7.2813    4.3945  -17.9949 C   0  0  0  0  0  0  0  0  0  0  0  0
   -8.4011    4.0228  -17.2338 C   0  0  0  0  0  0  0  0  0  0  0  0
   -8.3789    4.3216  -15.8699 C   0  0  0  0  0  0  0  0  0  0  0  0
   -7.2488    4.9225  -15.3188 C   0  0  0  0  0  0  0  0  0  0  0  0
   -7.3012    5.6285  -14.0349 C   0  0  0  0  0  0  0  0  0  0  0  0
   -7.0134    6.7587  -14.0574 O   0  0  0  0  0  0  0  0  0  0  0  0
   -7.7911    4.7484  -12.8755 N   0  0  0  0  0  0  0  0  0  0  0  0
   -7.9355    5.0332  -11.5318 C   0  0  0  0  0  0  0  0  0  0  0  0
   -7.6030    6.3441  -11.1215 C   0  0  0  0  0  0  0  0  0  0  0  0
   -7.7331    6.7528   -9.8122 C   0  0  0  0  0  0  0  0  0  0  0  0
   -8.2027    5.8130   -8.9448 C   0  0  0  0  0  0  0  0  0  0  0  0
   -8.5341    4.5106   -9.3147 C   0  0  0  0  0  0  0  0  0  0  0  0
   -8.3958    4.0838  -10.6233 C   0  0  0  0  0  0  0  0  0  0  0  0
   -8.9567    3.7730   -8.0984 C   0  0  0  0  0  0  0  0  0  0  0  0
   -9.0487    4.8606   -7.0732 N   0  0  0  0  0  0  0  0  0  0  0  0
   -9.3152    4.7969   -5.6243 C   0  0  2  0  0  0  0  0  0  0  0  0
   -8.0556    4.4620   -4.8581 C   0  0  0  0  0  0  0  0  0  0  0  0
   -7.6373    3.0844   -5.3238 C   0  0  0  0  0  0  0  0  0  0  0  0
   -8.7549    2.1544   -5.8911 C   0  0  0  0  0  0  0  0  0  0  0  0
   -8.5136    1.1452   -6.5481 O   0  0  0  0  0  0  0  0  0  0  0  0
  -10.0538    2.5411   -5.6791 N   0  0  0  0  0  0  0  0  0  0  0  0
  -11.0254    1.5146   -5.5079 C   0  0  0  0  0  0  0  0  0  0  0  0
  -10.2509    3.7426   -5.0967 C   0  0  0  0  0  0  0  0  0  0  0  0
  -10.8544    3.8669   -4.0370 O   0  0  0  0  0  0  0  0  0  0  0  0
   -8.4736    6.0210   -7.5379 C   0  0  0  0  0  0  0  0  0  0  0  0
   -8.2328    7.0425   -6.9220 O   0  0  0  0  0  0  0  0  0  0  0  0
   -6.0977    5.1815  -16.0667 C   0  0  0  0  0  0  0  0  0  0  0  0
   -6.1302    4.9591  -17.4438 C   0  0  0  0  0  0  0  0  0  0  0  0
   -4.0050    7.4011  -17.8877 C   0  0  0  0  0  0  0  0  0  0  0  0
   -2.6359    8.0804  -17.8499 C   0  0  0  0  0  0  0  0  0  0  0  0
  1  2  1  0
  2  3  1  0
  3  4  1  0
  4  5  1  0
  5  6  1  0
  6  7  1  0
  7  8  2  0
  8  9  1  0
  9 10  1  0
 10 11  2  0
 11 12  1  0
 12 13  2  0
 13 14  1  0
 14 15  2  0
 14 16  1  0
 16 17  1  0
 17 18  2  0
 18 19  1  0
 19 20  2  0
 20 21  1  0
 21 22  2  0
 21 23  1  0
 23 24  1  0
 25 24  1  6
 25 26  1  0
 26 27  1  0
 27 28  1  0
 28 29  2  0
 28 30  1  0
 30 31  1  0
 30 32  1  0
 32 33  2  0
 24 34  1  0
 34 35  2  0
 13 36  1  0
 36 37  2  0
  6 38  1  0
 38 39  1  0
 39  3  1  0
 37  7  1  0
 37 10  1  0
 22 17  1  0
 32 25  1  0
 34 20  1  0
M  END
>  <name>  (1254) 
P142199

>  <alias>  (1254) 
None

>  <smina_score_min>  (1254) 
-8.455

>  <exports>  (1254) 
['/opt/xchem-fragalysis-2/maxwin/BulkDock/OUTPUTS/openbind_xx01zvns2b_c2_elabs_1LOUTNY.sdf', '/opt/xchem-fragalysis-2/maxwin/BulkDock/OUTPUTS/openbind_xx01zvns2b_c2_elabs_1LSYIIV.sdf']

>  <tags>  (1254) 
syndirella_placed,openbind_xx01zvns2b_c2_elabs,openbind_xx01zvns2b_c2_elabs_scored_6.2plus,syndirella_product,openbind_xx01zvns2b_c2_elabs_scored,openbind_xx01zvns2b_c2_elabs_scored_top80percent,BulkDock Fragalysis export

>  <subsites>  (1254) 
1 - Z4590/B/203/1

>  <smiles>  (1254) 
CCN1CCC(c2c[nH]c3ccc(C(=O)Nc4ccc5c(c4)CN([C@@H]4CCC(=O)N(C)C4=O)C5=O)cc23)CC1

>  <HIPPO Pose ID>  (1254) 
142199

>  <energy_score>  (1254) 
-39.171689

>  <inchikey>  (1254) 
AGKXASGKKFBDBY-AREMUKBSSA-N

>  <gnina_score_min>  (1254) 
6.26

>  <gnina_score>  (1254) 
6.377

>  <ref_mols>  (1254) 
Z4161a

>  <HIPPO Compound ID>  (1254) 
199822

>  <distance_score>  (1254) 
1.269229

>  <rmsd(smina/fragmenstein)>  (1254) 
2.23

>  <ref_pdb>  (1254) 
Z4161a

>  <inspiration_score>  (1254) 
None

$$$$
P142202
     RDKit          3D

 39 44  0  0  0  0  0  0  0  0999 V2000
   -0.3418    9.2208  -16.2573 C   0  0  0  0  0  0  0  0  0  0  0  0
   -0.3959    7.9251  -17.0596 C   0  0  0  0  0  0  0  0  0  0  0  0
   -1.7205    7.2813  -17.0380 N   0  0  0  0  0  0  0  0  0  0  0  0
   -1.6179    5.9307  -17.6225 C   0  0  0  0  0  0  0  0  0  0  0  0
   -2.9509    5.1833  -17.5766 C   0  0  0  0  0  0  0  0  0  0  0  0
   -4.0383    5.9872  -18.2897 C   0  0  0  0  0  0  0  0  0  0  0  0
   -5.3813    5.3074  -18.3109 C   0  0  0  0  0  0  0  0  0  0  0  0
   -6.0465    4.9066  -19.4480 C   0  0  0  0  0  0  0  0  0  0  0  0
   -7.2762    4.4104  -19.0973 N   0  0  0  0  0  0  0  0  0  0  0  0
   -7.4258    4.4418  -17.7319 C   0  0  0  0  0  0  0  0  0  0  0  0
   -8.5100    4.0667  -16.9200 C   0  0  0  0  0  0  0  0  0  0  0  0
   -8.3983    4.2691  -15.5364 C   0  0  0  0  0  0  0  0  0  0  0  0
   -7.2285    4.8014  -15.0015 C   0  0  0  0  0  0  0  0  0  0  0  0
   -7.0565    5.1832  -13.5793 C   0  0  0  0  0  0  0  0  0  0  0  0
   -6.4213    6.1488  -13.3957 O   0  0  0  0  0  0  0  0  0  0  0  0
   -7.6656    4.1753  -12.5721 N   0  0  0  0  0  0  0  0  0  0  0  0
   -7.6995    4.1966  -11.1808 C   0  0  0  0  0  0  0  0  0  0  0  0
   -6.9237    5.1966  -10.5564 C   0  0  0  0  0  0  0  0  0  0  0  0
   -6.8353    5.3073   -9.1820 C   0  0  0  0  0  0  0  0  0  0  0  0
   -7.5697    4.4204   -8.4404 C   0  0  0  0  0  0  0  0  0  0  0  0
   -8.3664    3.4439   -9.0348 C   0  0  0  0  0  0  0  0  0  0  0  0
   -8.4359    3.2875  -10.4146 C   0  0  0  0  0  0  0  0  0  0  0  0
   -9.1967    2.8830   -7.9504 C   0  0  0  0  0  0  0  0  0  0  0  0
  -10.0813    2.0676   -8.1029 O   0  0  0  0  0  0  0  0  0  0  0  0
   -8.8900    3.6006   -6.7815 N   0  0  0  0  0  0  0  0  0  0  0  0
   -9.9319    3.9883   -5.8322 C   0  0  1  0  0  0  0  0  0  0  0  0
   -9.9366    3.1800   -4.5638 C   0  0  0  0  0  0  0  0  0  0  0  0
   -8.6900    3.4661   -3.7572 C   0  0  0  0  0  0  0  0  0  0  0  0
   -8.4812    4.9304   -3.4911 C   0  0  0  0  0  0  0  0  0  0  0  0
   -7.6627    5.2861   -2.6415 O   0  0  0  0  0  0  0  0  0  0  0  0
   -9.1875    5.8202   -4.2867 N   0  0  0  0  0  0  0  0  0  0  0  0
   -9.0316    7.2368   -4.0066 C   0  0  0  0  0  0  0  0  0  0  0  0
   -9.8862    5.4816   -5.4526 C   0  0  0  0  0  0  0  0  0  0  0  0
  -10.3354    6.3510   -6.2009 O   0  0  0  0  0  0  0  0  0  0  0  0
   -7.7168    4.4151   -6.9744 C   0  0  0  0  0  0  0  0  0  0  0  0
   -6.1455    5.1347  -15.8324 C   0  0  0  0  0  0  0  0  0  0  0  0
   -6.2447    4.9786  -17.2193 C   0  0  0  0  0  0  0  0  0  0  0  0
   -4.1071    7.4053  -17.7123 C   0  0  0  0  0  0  0  0  0  0  0  0
   -2.7334    8.0769  -17.7471 C   0  0  0  0  0  0  0  0  0  0  0  0
  1  2  1  0
  2  3  1  0
  3  4  1  0
  4  5  1  0
  5  6  1  0
  6  7  1  0
  7  8  2  0
  8  9  1  0
  9 10  1  0
 10 11  2  0
 11 12  1  0
 12 13  2  0
 13 14  1  0
 14 15  2  0
 14 16  1  0
 16 17  1  0
 17 18  2  0
 18 19  1  0
 19 20  2  0
 20 21  1  0
 21 22  2  0
 21 23  1  0
 23 24  2  0
 23 25  1  0
 26 25  1  6
 26 27  1  0
 27 28  1  0
 28 29  1  0
 29 30  2  0
 29 31  1  0
 31 32  1  0
 31 33  1  0
 33 34  2  0
 25 35  1  0
 13 36  1  0
 36 37  2  0
  6 38  1  0
 38 39  1  0
 39  3  1  0
 37  7  1  0
 37 10  1  0
 22 17  1  0
 33 26  1  0
 35 20  1  0
M  END
>  <name>  (1255) 
P142202

>  <alias>  (1255) 
None

>  <smina_score_min>  (1255) 
-9.805

>  <exports>  (1255) 
['/opt/xchem-fragalysis-2/maxwin/BulkDock/OUTPUTS/openbind_xx01zvns2b_c2_elabs_1LOUTNY.sdf', '/opt/xchem-fragalysis-2/maxwin/BulkDock/OUTPUTS/openbind_xx01zvns2b_c2_elabs_1LSYIIV.sdf']

>  <tags>  (1255) 
syndirella_placed,openbind_xx01zvns2b_c2_elabs,openbind_xx01zvns2b_c2_elabs_scored_6.2plus,syndirella_product,openbind_xx01zvns2b_c2_elabs_scored,openbind_xx01zvns2b_c2_elabs_scored_top80percent,BulkDock Fragalysis export

>  <subsites>  (1255) 
1 - Z4590/B/203/1

>  <smiles>  (1255) 
CCN1CCC(c2c[nH]c3ccc(C(=O)Nc4ccc5c(c4)C(=O)N([C@H]4CCC(=O)N(C)C4=O)C5)cc23)CC1

>  <HIPPO Pose ID>  (1255) 
142202

>  <energy_score>  (1255) 
-39.607798

>  <inchikey>  (1255) 
ADOYDCFWVAOTCD-SANMLTNESA-N

>  <gnina_score_min>  (1255) 
6.382

>  <gnina_score>  (1255) 
6.319

>  <ref_mols>  (1255) 
Z4161a

>  <HIPPO Compound ID>  (1255) 
199823

>  <distance_score>  (1255) 
0.764044

>  <rmsd(smina/fragmenstein)>  (1255) 
0.787

>  <ref_pdb>  (1255) 
Z4161a

>  <inspiration_score>  (1255) 
None

$$$$
P142240
     RDKit          3D

 33 37  0  0  0  0  0  0  0  0999 V2000
   -5.1861    7.3085  -16.9915 C   0  0  0  0  0  0  0  0  0  0  0  0
   -5.1361    5.7742  -16.9400 C   0  0  0  0  0  0  0  0  0  0  0  0
   -4.1931    5.3248  -15.8309 C   0  0  0  0  0  0  0  0  0  0  0  0
   -4.6074    5.3213  -18.3285 C   0  0  0  0  0  0  0  0  0  0  0  0
   -3.4591    5.4080  -18.7379 O   0  0  0  0  0  0  0  0  0  0  0  0
   -5.6925    4.8389  -19.0442 N   0  0  0  0  0  0  0  0  0  0  0  0
   -6.7965    4.6795  -18.2216 C   0  0  0  0  0  0  0  0  0  0  0  0
   -7.9971    4.0979  -18.5841 C   0  0  0  0  0  0  0  0  0  0  0  0
   -8.9723    3.9559  -17.6046 C   0  0  0  0  0  0  0  0  0  0  0  0
   -8.7145    4.3848  -16.2963 C   0  0  0  0  0  0  0  0  0  0  0  0
   -7.4862    4.9917  -15.9587 C   0  0  0  0  0  0  0  0  0  0  0  0
   -7.3404    5.5341  -14.5901 C   0  0  0  0  0  0  0  0  0  0  0  0
   -7.0938    6.6641  -14.4474 O   0  0  0  0  0  0  0  0  0  0  0  0
   -7.6584    4.4421  -13.5508 N   0  0  0  0  0  0  0  0  0  0  0  0
   -7.8268    4.5278  -12.1773 C   0  0  0  0  0  0  0  0  0  0  0  0
   -7.8535    5.7792  -11.5321 C   0  0  0  0  0  0  0  0  0  0  0  0
   -8.0894    5.8694  -10.1618 C   0  0  0  0  0  0  0  0  0  0  0  0
   -8.2675    4.6858   -9.4811 C   0  0  0  0  0  0  0  0  0  0  0  0
   -8.2108    3.4410  -10.0985 C   0  0  0  0  0  0  0  0  0  0  0  0
   -8.0123    3.3435  -11.4594 C   0  0  0  0  0  0  0  0  0  0  0  0
   -8.4075    2.3616   -9.0954 C   0  0  0  0  0  0  0  0  0  0  0  0
   -8.4981    3.1233   -7.8490 N   0  0  0  0  0  0  0  0  0  0  0  0
   -8.7652    2.4398   -6.5939 C   0  0  1  0  0  0  0  0  0  0  0  0
   -8.6080    3.3080   -5.3370 C   0  0  0  0  0  0  0  0  0  0  0  0
   -9.9235    3.7386   -4.7068 C   0  0  0  0  0  0  0  0  0  0  0  0
  -11.0677    2.8301   -5.0819 C   0  0  0  0  0  0  0  0  0  0  0  0
  -11.9198    2.3990   -4.3206 O   0  0  0  0  0  0  0  0  0  0  0  0
  -11.1598    2.5564   -6.3879 N   0  0  0  0  0  0  0  0  0  0  0  0
  -10.1202    1.7976   -6.7710 C   0  0  0  0  0  0  0  0  0  0  0  0
  -10.2882    0.7190   -7.3274 O   0  0  0  0  0  0  0  0  0  0  0  0
   -8.5348    4.4823   -8.0617 C   0  0  0  0  0  0  0  0  0  0  0  0
   -8.7435    5.3841   -7.2724 O   0  0  0  0  0  0  0  0  0  0  0  0
   -6.5191    5.1536  -16.9364 C   0  0  0  0  0  0  0  0  0  0  0  0
  1  2  1  0
  2  3  1  0
  2  4  1  0
  4  5  2  0
  4  6  1  0
  6  7  1  0
  7  8  2  0
  8  9  1  0
  9 10  2  0
 10 11  1  0
 11 12  1  0
 12 13  2  0
 12 14  1  0
 14 15  1  0
 15 16  2  0
 16 17  1  0
 17 18  2  0
 18 19  1  0
 19 20  2  0
 19 21  1  0
 21 22  1  0
 23 22  1  6
 23 24  1  0
 24 25  1  0
 25 26  1  0
 26 27  2  0
 26 28  1  0
 28 29  1  0
 29 30  2  0
 22 31  1  0
 31 32  2  0
 11 33  2  0
 33  2  1  0
 33  7  1  0
 20 15  1  0
 29 23  1  0
 31 18  1  0
M  END
>  <name>  (1256) 
P142240

>  <alias>  (1256) 
None

>  <smina_score_min>  (1256) 
-9.391

>  <exports>  (1256) 
['/opt/xchem-fragalysis-2/maxwin/BulkDock/OUTPUTS/openbind_xx01zvns2b_c2_elabs_1LOUTNY.sdf', '/opt/xchem-fragalysis-2/maxwin/BulkDock/OUTPUTS/openbind_xx01zvns2b_c2_elabs_1LSYIIV.sdf']

>  <tags>  (1256) 
syndirella_placed,openbind_xx01zvns2b_c2_elabs,openbind_xx01zvns2b_c2_elabs_scored_6.2plus,syndirella_product,openbind_xx01zvns2b_c2_elabs_scored,openbind_xx01zvns2b_c2_elabs_scored_top80percent,BulkDock Fragalysis export

>  <subsites>  (1256) 
1 - Z4590/B/203/1

>  <smiles>  (1256) 
CC1(C)C(=O)Nc2cccc(C(=O)Nc3ccc4c(c3)CN([C@H]3CCC(=O)NC3=O)C4=O)c21

>  <HIPPO Pose ID>  (1256) 
142240

>  <energy_score>  (1256) 
-35.244985

>  <inchikey>  (1256) 
ZDFQUNQFSCRBLK-KRWDZBQOSA-N

>  <gnina_score_min>  (1256) 
6.23

>  <gnina_score>  (1256) 
6.173

>  <ref_mols>  (1256) 
Z3936a

>  <HIPPO Compound ID>  (1256) 
199826

>  <distance_score>  (1256) 
0.745659

>  <rmsd(smina/fragmenstein)>  (1256) 
0.502

>  <ref_pdb>  (1256) 
Z3936a

>  <inspiration_score>  (1256) 
None

$$$$
P142426
     RDKit          3D

 28 30  0  0  0  0  0  0  0  0999 V2000
  -10.2174    9.1964  -12.8286 C   0  0  0  0  0  0  0  0  0  0  0  0
   -8.8114    8.7949  -12.4246 C   0  0  0  0  0  0  0  0  0  0  0  0
   -8.8314    7.4148  -12.0459 O   0  0  0  0  0  0  0  0  0  0  0  0
   -7.6703    6.9897  -11.4874 C   0  0  0  0  0  0  0  0  0  0  0  0
   -6.6481    7.6277  -11.3036 O   0  0  0  0  0  0  0  0  0  0  0  0
   -7.8667    5.6174  -11.0254 C   0  0  0  0  0  0  0  0  0  0  0  0
   -7.9508    5.5205   -9.6359 C   0  0  0  0  0  0  0  0  0  0  0  0
   -8.2813    4.3969   -8.9680 N   0  0  0  0  0  0  0  0  0  0  0  0
   -8.5352    3.3114   -9.7304 C   0  0  0  0  0  0  0  0  0  0  0  0
   -9.0629    1.9596   -8.8219 Cl  0  0  0  0  0  0  0  0  0  0  0  0
   -8.4474    3.3022  -11.1193 C   0  0  0  0  0  0  0  0  0  0  0  0
   -8.7279    2.1958  -11.8266 F   0  0  0  0  0  0  0  0  0  0  0  0
   -8.0911    4.4753  -11.8025 C   0  0  0  0  0  0  0  0  0  0  0  0
   -7.9812    4.3768  -13.2076 N   0  0  0  0  0  0  0  0  0  0  0  0
   -7.4400    5.3880  -14.2470 C   0  0  0  0  0  0  0  0  0  0  0  0
   -7.0727    6.4883  -14.1123 O   0  0  0  0  0  0  0  0  0  0  0  0
   -7.4603    4.8577  -15.6377 C   0  0  0  0  0  0  0  0  0  0  0  0
   -8.6146    4.3037  -16.1842 C   0  0  0  0  0  0  0  0  0  0  0  0
   -8.6497    3.9702  -17.5360 C   0  0  0  0  0  0  0  0  0  0  0  0
   -7.5321    4.1982  -18.3411 C   0  0  0  0  0  0  0  0  0  0  0  0
   -6.3545    4.7562  -17.8170 C   0  0  0  0  0  0  0  0  0  0  0  0
   -5.2051    4.9827  -18.7196 C   0  0  0  0  0  0  0  0  0  0  0  0
   -5.2262    4.7741  -20.0267 N   0  0  0  0  0  0  0  0  0  0  0  0
   -4.0033    5.0882  -20.5851 C   0  0  0  0  0  0  0  0  0  0  0  0
   -3.0354    5.5098  -19.7026 C   0  0  0  0  0  0  0  0  0  0  0  0
   -1.6320    5.9210  -19.9569 C   0  0  0  0  0  0  0  0  0  0  0  0
   -3.6776    5.5239  -18.1211 S   0  0  0  0  0  0  0  0  0  0  0  0
   -6.3407    5.0876  -16.4512 C   0  0  0  0  0  0  0  0  0  0  0  0
  1  2  1  0
  2  3  1  0
  3  4  1  0
  4  5  2  0
  4  6  1  0
  6  7  2  0
  7  8  1  0
  8  9  2  0
  9 10  1  0
  9 11  1  0
 11 12  1  0
 11 13  2  0
 13 14  1  0
 14 15  1  0
 15 16  2  0
 15 17  1  0
 17 18  2  0
 18 19  1  0
 19 20  2  0
 20 21  1  0
 21 22  1  0
 22 23  2  0
 23 24  1  0
 24 25  2  0
 25 26  1  0
 25 27  1  0
 21 28  2  0
 13  6  1  0
 28 17  1  0
 27 22  1  0
M  END
>  <name>  (1257) 
P142426

>  <alias>  (1257) 
None

>  <smina_score_min>  (1257) 
-7.626

>  <exports>  (1257) 
['/opt/xchem-fragalysis-2/maxwin/BulkDock/OUTPUTS/openbind_xx01zvns2b_c2_elabs_1LOUTNY.sdf', '/opt/xchem-fragalysis-2/maxwin/BulkDock/OUTPUTS/openbind_xx01zvns2b_c2_elabs_1LSYIIV.sdf']

>  <tags>  (1257) 
syndirella_placed,openbind_xx01zvns2b_c2_elabs,openbind_xx01zvns2b_c2_elabs_scored_6.2plus,syndirella_product,openbind_xx01zvns2b_c2_elabs_scored,openbind_xx01zvns2b_c2_elabs_scored_top80percent,BulkDock Fragalysis export

>  <subsites>  (1257) 
1 - Z4590/B/203/1

>  <smiles>  (1257) 
CCOC(=O)c1cnc(Cl)c(F)c1NC(=O)c1cccc(-c2ncc(C)s2)c1

>  <HIPPO Pose ID>  (1257) 
142426

>  <energy_score>  (1257) 
-49.45464

>  <inchikey>  (1257) 
LONBXDQXCIMFGF-UHFFFAOYSA-N

>  <gnina_score_min>  (1257) 
6.227

>  <gnina_score>  (1257) 
6.128

>  <ref_mols>  (1257) 
Z1274a

>  <HIPPO Compound ID>  (1257) 
200067

>  <distance_score>  (1257) 
0.502193

>  <rmsd(smina/fragmenstein)>  (1257) 
0.756

>  <ref_pdb>  (1257) 
Z1274a

>  <inspiration_score>  (1257) 
None

$$$$
P142448
     RDKit          3D

 29 33  0  0  0  0  0  0  0  0999 V2000
   -3.6345    5.0525  -22.3670 C   0  0  0  0  0  0  0  0  0  0  0  0
   -3.8326    5.0642  -20.9007 C   0  0  0  0  0  0  0  0  0  0  0  0
   -2.8639    5.3210  -19.9554 C   0  0  0  0  0  0  0  0  0  0  0  0
   -3.5492    5.2827  -18.3980 S   0  0  0  0  0  0  0  0  0  0  0  0
   -5.0888    4.8578  -19.0720 C   0  0  0  0  0  0  0  0  0  0  0  0
   -6.2507    4.5751  -18.2054 C   0  0  0  0  0  0  0  0  0  0  0  0
   -7.4209    4.0078  -18.7309 C   0  0  0  0  0  0  0  0  0  0  0  0
   -8.5399    3.7533  -17.9246 C   0  0  0  0  0  0  0  0  0  0  0  0
   -8.5186    4.0712  -16.5703 C   0  0  0  0  0  0  0  0  0  0  0  0
   -7.3617    4.6213  -16.0357 C   0  0  0  0  0  0  0  0  0  0  0  0
   -7.3460    5.2763  -14.7224 C   0  0  0  0  0  0  0  0  0  0  0  0
   -6.9319    6.3685  -14.7451 O   0  0  0  0  0  0  0  0  0  0  0  0
   -7.9650    4.4643  -13.5639 N   0  0  0  0  0  0  0  0  0  0  0  0
   -8.1126    4.7805  -12.2159 C   0  0  0  0  0  0  0  0  0  0  0  0
   -8.0149    3.8607  -11.1864 C   0  0  0  0  0  0  0  0  0  0  0  0
   -7.9937    4.3167   -9.8565 C   0  0  0  0  0  0  0  0  0  0  0  0
   -8.0692    5.5916   -9.4614 N   0  0  0  0  0  0  0  0  0  0  0  0
   -8.2116    6.4400  -10.4852 C   0  0  0  0  0  0  0  0  0  0  0  0
   -8.2680    6.1022  -11.8393 C   0  0  0  0  0  0  0  0  0  0  0  0
   -8.4524    7.3372  -12.6699 C   0  0  0  0  0  0  0  0  0  0  0  0
   -8.8614    8.3768  -11.6354 C   0  0  0  0  0  0  0  0  0  0  0  0
   -8.1452    7.9364  -10.3501 C   0  0  0  0  0  0  0  0  0  0  0  0
   -8.8710    8.4659   -9.1383 C   0  0  0  0  0  0  0  0  0  0  0  0
   -6.6806    8.3550  -10.3514 C   0  0  0  0  0  0  0  0  0  0  0  0
   -7.6489    3.2306   -8.8939 C   0  0  0  0  0  0  0  0  0  0  0  0
   -7.9692    2.0134   -9.7375 C   0  0  0  0  0  0  0  0  0  0  0  0
   -7.7274    2.4015  -11.2097 C   0  0  0  0  0  0  0  0  0  0  0  0
   -6.2426    4.8678  -16.8422 C   0  0  0  0  0  0  0  0  0  0  0  0
   -5.0869    4.7713  -20.3909 N   0  0  0  0  0  0  0  0  0  0  0  0
  1  2  1  0
  2  3  2  0
  3  4  1  0
  4  5  1  0
  5  6  1  0
  6  7  2  0
  7  8  1  0
  8  9  2  0
  9 10  1  0
 10 11  1  0
 11 12  2  0
 11 13  1  0
 13 14  1  0
 14 15  2  0
 15 16  1  0
 16 17  2  0
 17 18  1  0
 18 19  2  0
 19 20  1  0
 20 21  1  0
 21 22  1  0
 22 23  1  0
 22 24  1  0
 16 25  1  0
 25 26  1  0
 26 27  1  0
 10 28  2  0
  5 29  2  0
 29  2  1  0
 28  6  1  0
 19 14  1  0
 27 15  1  0
 22 18  1  0
M  END
>  <name>  (1258) 
P142448

>  <alias>  (1258) 
None

>  <smina_score_min>  (1258) 
-8.207

>  <exports>  (1258) 
['/opt/xchem-fragalysis-2/maxwin/BulkDock/OUTPUTS/openbind_xx01zvns2b_c2_elabs_1LOUTNY.sdf', '/opt/xchem-fragalysis-2/maxwin/BulkDock/OUTPUTS/openbind_xx01zvns2b_c2_elabs_1LSYIIV.sdf']

>  <tags>  (1258) 
syndirella_placed,openbind_xx01zvns2b_c2_elabs,openbind_xx01zvns2b_c2_elabs_scored_6.2plus,syndirella_product,openbind_xx01zvns2b_c2_elabs_scored,openbind_xx01zvns2b_c2_elabs_scored_top80percent,BulkDock Fragalysis export

>  <subsites>  (1258) 
1 - Z4590/B/203/1

>  <smiles>  (1258) 
Cc1csc(-c2cccc(C(=O)Nc3c4c(nc5c3CCC5(C)C)CCC4)c2)n1

>  <HIPPO Pose ID>  (1258) 
142448

>  <energy_score>  (1258) 
-55.887389

>  <inchikey>  (1258) 
IQTGNQRGTWOGLK-UHFFFAOYSA-N

>  <gnina_score_min>  (1258) 
6.213

>  <gnina_score>  (1258) 
6.385

>  <ref_mols>  (1258) 
Z1274a

>  <HIPPO Compound ID>  (1258) 
200104

>  <distance_score>  (1258) 
1.17154

>  <rmsd(smina/fragmenstein)>  (1258) 
0.653

>  <ref_pdb>  (1258) 
Z1274a

>  <inspiration_score>  (1258) 
None

$$$$
P142452
     RDKit          3D

 29 33  0  0  0  0  0  0  0  0999 V2000
   -1.8139    5.9754  -20.7883 C   0  0  0  0  0  0  0  0  0  0  0  0
   -3.1547    5.4646  -20.4071 C   0  0  0  0  0  0  0  0  0  0  0  0
   -4.1493    4.9378  -21.1990 C   0  0  0  0  0  0  0  0  0  0  0  0
   -5.3074    4.5653  -20.5465 N   0  0  0  0  0  0  0  0  0  0  0  0
   -5.2154    4.8467  -19.2566 C   0  0  0  0  0  0  0  0  0  0  0  0
   -6.2800    4.6066  -18.2628 C   0  0  0  0  0  0  0  0  0  0  0  0
   -7.4995    4.0291  -18.6542 C   0  0  0  0  0  0  0  0  0  0  0  0
   -8.5356    3.8108  -17.7377 C   0  0  0  0  0  0  0  0  0  0  0  0
   -8.3732    4.1712  -16.4043 C   0  0  0  0  0  0  0  0  0  0  0  0
   -7.1665    4.7375  -16.0059 C   0  0  0  0  0  0  0  0  0  0  0  0
   -7.0310    5.3988  -14.7027 C   0  0  0  0  0  0  0  0  0  0  0  0
   -6.7742    6.5364  -14.7399 O   0  0  0  0  0  0  0  0  0  0  0  0
   -7.3542    4.4860  -13.5041 N   0  0  0  0  0  0  0  0  0  0  0  0
   -7.5178    4.7893  -12.1516 C   0  0  0  0  0  0  0  0  0  0  0  0
   -7.6585    3.7775  -11.2148 C   0  0  0  0  0  0  0  0  0  0  0  0
   -8.0764    4.0705   -9.9090 C   0  0  0  0  0  0  0  0  0  0  0  0
   -8.3223    5.2972   -9.4406 N   0  0  0  0  0  0  0  0  0  0  0  0
   -8.0553    6.2631  -10.3378 C   0  0  0  0  0  0  0  0  0  0  0  0
   -7.6111    6.0758  -11.6547 C   0  0  0  0  0  0  0  0  0  0  0  0
   -7.3013    7.4012  -12.2762 C   0  0  0  0  0  0  0  0  0  0  0  0
   -7.1806    8.3196  -11.0631 C   0  0  0  0  0  0  0  0  0  0  0  0
   -8.1319    7.7332  -10.0136 C   0  0  0  0  0  0  0  0  0  0  0  0
   -7.6094    7.9979   -8.6235 C   0  0  0  0  0  0  0  0  0  0  0  0
   -9.5326    8.3163  -10.1868 C   0  0  0  0  0  0  0  0  0  0  0  0
   -8.1044    2.8356   -9.0574 C   0  0  0  0  0  0  0  0  0  0  0  0
   -7.0764    2.0038   -9.8212 C   0  0  0  0  0  0  0  0  0  0  0  0
   -7.3095    2.3295  -11.3079 C   0  0  0  0  0  0  0  0  0  0  0  0
   -6.1340    4.9569  -16.9191 C   0  0  0  0  0  0  0  0  0  0  0  0
   -3.6803    5.4970  -18.7869 S   0  0  0  0  0  0  0  0  0  0  0  0
  1  2  1  0
  2  3  2  0
  3  4  1  0
  4  5  2  0
  5  6  1  0
  6  7  2  0
  7  8  1  0
  8  9  2  0
  9 10  1  0
 10 11  1  0
 11 12  2  0
 11 13  1  0
 13 14  1  0
 14 15  2  0
 15 16  1  0
 16 17  2  0
 17 18  1  0
 18 19  2  0
 19 20  1  0
 20 21  1  0
 21 22  1  0
 22 23  1  0
 22 24  1  0
 16 25  1  0
 25 26  1  0
 26 27  1  0
 10 28  2  0
  5 29  1  0
 29  2  1  0
 28  6  1  0
 19 14  1  0
 27 15  1  0
 22 18  1  0
M  END
>  <name>  (1259) 
P142452

>  <alias>  (1259) 
None

>  <smina_score_min>  (1259) 
-7.679

>  <exports>  (1259) 
['/opt/xchem-fragalysis-2/maxwin/BulkDock/OUTPUTS/openbind_xx01zvns2b_c2_elabs_1LOUTNY.sdf', '/opt/xchem-fragalysis-2/maxwin/BulkDock/OUTPUTS/openbind_xx01zvns2b_c2_elabs_1LSYIIV.sdf']

>  <tags>  (1259) 
syndirella_placed,openbind_xx01zvns2b_c2_elabs,openbind_xx01zvns2b_c2_elabs_scored_6.2plus,syndirella_product,openbind_xx01zvns2b_c2_elabs_scored,openbind_xx01zvns2b_c2_elabs_scored_top80percent,BulkDock Fragalysis export

>  <subsites>  (1259) 
1 - Z4590/B/203/1

>  <smiles>  (1259) 
Cc1cnc(-c2cccc(C(=O)Nc3c4c(nc5c3CCC5(C)C)CCC4)c2)s1

>  <HIPPO Pose ID>  (1259) 
142452

>  <energy_score>  (1259) 
-61.519345

>  <inchikey>  (1259) 
GUIKRXGHFOFZRG-UHFFFAOYSA-N

>  <gnina_score_min>  (1259) 
6.242

>  <gnina_score>  (1259) 
6.341

>  <ref_mols>  (1259) 
Z1274a

>  <HIPPO Compound ID>  (1259) 
200110

>  <distance_score>  (1259) 
1.255304

>  <rmsd(smina/fragmenstein)>  (1259) 
1.097

>  <ref_pdb>  (1259) 
Z1274a

>  <inspiration_score>  (1259) 
None

$$$$
P142453
     RDKit          3D

 29 32  0  0  0  0  0  0  0  0999 V2000
   -1.6674    5.9458  -20.1254 C   0  0  0  0  0  0  0  0  0  0  0  0
   -3.0592    5.5075  -19.8527 C   0  0  0  0  0  0  0  0  0  0  0  0
   -4.0272    5.0590  -20.7218 C   0  0  0  0  0  0  0  0  0  0  0  0
   -5.2402    4.7304  -20.1500 N   0  0  0  0  0  0  0  0  0  0  0  0
   -5.2125    4.9584  -18.8463 C   0  0  0  0  0  0  0  0  0  0  0  0
   -6.3520    4.7349  -17.9314 C   0  0  0  0  0  0  0  0  0  0  0  0
   -7.5355    4.1696  -18.4339 C   0  0  0  0  0  0  0  0  0  0  0  0
   -8.6436    3.9489  -17.6125 C   0  0  0  0  0  0  0  0  0  0  0  0
   -8.5918    4.2951  -16.2651 C   0  0  0  0  0  0  0  0  0  0  0  0
   -7.4296    4.8565  -15.7426 C   0  0  0  0  0  0  0  0  0  0  0  0
   -7.3784    5.3863  -14.3544 C   0  0  0  0  0  0  0  0  0  0  0  0
   -6.9376    6.4589  -14.2104 O   0  0  0  0  0  0  0  0  0  0  0  0
   -7.9683    4.3958  -13.3197 N   0  0  0  0  0  0  0  0  0  0  0  0
   -8.0496    4.4797  -11.9099 C   0  0  0  0  0  0  0  0  0  0  0  0
   -8.3695    3.2580  -11.2917 C   0  0  0  0  0  0  0  0  0  0  0  0
   -8.5051    3.1848   -9.9136 C   0  0  0  0  0  0  0  0  0  0  0  0
   -8.3783    4.2472   -9.1031 N   0  0  0  0  0  0  0  0  0  0  0  0
   -8.0587    5.4107   -9.7067 C   0  0  0  0  0  0  0  0  0  0  0  0
   -7.8645    5.6007  -11.0852 C   0  0  0  0  0  0  0  0  0  0  0  0
   -7.4327    6.9835  -11.4927 C   0  0  0  0  0  0  0  0  0  0  0  0
   -8.5002    7.8525  -12.1714 C   0  0  0  0  0  0  0  0  0  0  0  0
   -9.3900    8.6718  -11.2057 C   0  0  0  0  0  0  0  0  0  0  0  0
   -8.6349    9.7584  -10.4168 C   0  0  0  0  0  0  0  0  0  0  0  0
   -8.1891   10.9337  -11.2845 C   0  0  0  0  0  0  0  0  0  0  0  0
   -9.3616   11.5470  -12.0426 C   0  0  0  0  0  0  0  0  0  0  0  0
  -10.1285   10.5023  -12.8450 C   0  0  0  0  0  0  0  0  0  0  0  0
  -10.5597    9.3235  -11.9737 C   0  0  0  0  0  0  0  0  0  0  0  0
   -6.3209    5.0782  -16.5708 C   0  0  0  0  0  0  0  0  0  0  0  0
   -3.6859    5.5240  -18.2658 S   0  0  0  0  0  0  0  0  0  0  0  0
  1  2  1  0
  2  3  2  0
  3  4  1  0
  4  5  2  0
  5  6  1  0
  6  7  2  0
  7  8  1  0
  8  9  2  0
  9 10  1  0
 10 11  1  0
 11 12  2  0
 11 13  1  0
 13 14  1  0
 14 15  2  0
 15 16  1  0
 16 17  2  0
 17 18  1  0
 18 19  2  0
 19 20  1  0
 20 21  1  0
 21 22  1  0
 22 23  1  0
 23 24  1  0
 24 25  1  0
 25 26  1  0
 26 27  1  0
 10 28  2  0
  5 29  1  0
 29  2  1  0
 28  6  1  0
 19 14  1  0
 27 22  1  0
M  END
>  <name>  (1260) 
P142453

>  <alias>  (1260) 
None

>  <smina_score_min>  (1260) 
-7.733

>  <exports>  (1260) 
['/opt/xchem-fragalysis-2/maxwin/BulkDock/OUTPUTS/openbind_xx01zvns2b_c2_elabs_1LOUTNY.sdf', '/opt/xchem-fragalysis-2/maxwin/BulkDock/OUTPUTS/openbind_xx01zvns2b_c2_elabs_1LSYIIV.sdf']

>  <tags>  (1260) 
syndirella_placed,openbind_xx01zvns2b_c2_elabs,openbind_xx01zvns2b_c2_elabs_scored_6.2plus,syndirella_product,openbind_xx01zvns2b_c2_elabs_scored,openbind_xx01zvns2b_c2_elabs_scored_top80percent,BulkDock Fragalysis export

>  <subsites>  (1260) 
1 - Z4590/B/203/1

>  <smiles>  (1260) 
Cc1cnc(-c2cccc(C(=O)Nc3ccncc3CCC3CCCCC3)c2)s1

>  <HIPPO Pose ID>  (1260) 
142453

>  <energy_score>  (1260) 
-59.600476

>  <inchikey>  (1260) 
AKYXEWQWKWVFLB-UHFFFAOYSA-N

>  <gnina_score_min>  (1260) 
6.443

>  <gnina_score>  (1260) 
6.264

>  <ref_mols>  (1260) 
Z1274a

>  <HIPPO Compound ID>  (1260) 
200111

>  <distance_score>  (1260) 
0.514709

>  <rmsd(smina/fragmenstein)>  (1260) 
1.063

>  <ref_pdb>  (1260) 
Z1274a

>  <inspiration_score>  (1260) 
None

$$$$
P142460
     RDKit          3D

 29 31  0  0  0  0  0  0  0  0999 V2000
   -1.6425    5.9254  -20.0545 C   0  0  0  0  0  0  0  0  0  0  0  0
   -3.0331    5.5215  -19.7293 C   0  0  0  0  0  0  0  0  0  0  0  0
   -4.0443    5.0976  -20.5606 C   0  0  0  0  0  0  0  0  0  0  0  0
   -5.2426    4.8026  -19.9422 N   0  0  0  0  0  0  0  0  0  0  0  0
   -5.1610    5.0335  -18.6415 C   0  0  0  0  0  0  0  0  0  0  0  0
   -6.2745    4.8519  -17.6856 C   0  0  0  0  0  0  0  0  0  0  0  0
   -7.4697    4.2690  -18.1371 C   0  0  0  0  0  0  0  0  0  0  0  0
   -8.5519    4.0794  -17.2764 C   0  0  0  0  0  0  0  0  0  0  0  0
   -8.4655    4.4852  -15.9451 C   0  0  0  0  0  0  0  0  0  0  0  0
   -7.2946    5.0781  -15.4701 C   0  0  0  0  0  0  0  0  0  0  0  0
   -7.2162    5.6707  -14.0955 C   0  0  0  0  0  0  0  0  0  0  0  0
   -6.7308    6.7261  -13.9850 O   0  0  0  0  0  0  0  0  0  0  0  0
   -7.8841    4.7594  -13.0397 N   0  0  0  0  0  0  0  0  0  0  0  0
   -8.0073    4.9141  -11.6283 C   0  0  0  0  0  0  0  0  0  0  0  0
   -8.1230    3.7464  -10.8487 C   0  0  0  0  0  0  0  0  0  0  0  0
   -7.9855    2.5028  -11.4927 C   0  0  0  0  0  0  0  0  0  0  0  0
   -7.8201    1.6231  -12.2204 N   0  0  0  0  0  0  0  0  0  0  0  0
   -8.2841    3.8317   -9.4805 C   0  0  0  0  0  0  0  0  0  0  0  0
   -8.7093    2.3194   -8.4124 Br  0  0  0  0  0  0  0  0  0  0  0  0
   -8.2190    5.0104   -8.8335 N   0  0  0  0  0  0  0  0  0  0  0  0
   -8.0743    6.1520   -9.5566 C   0  0  0  0  0  0  0  0  0  0  0  0
   -7.9516    7.4412   -8.7422 C   0  0  0  0  0  0  0  0  0  0  0  0
   -6.5491    8.0475   -8.8823 C   0  0  0  0  0  0  0  0  0  0  0  0
   -8.2320    7.2294   -7.2459 C   0  0  0  0  0  0  0  0  0  0  0  0
   -8.0413    6.1475  -10.9653 C   0  0  0  0  0  0  0  0  0  0  0  0
   -8.2308    7.3822  -11.6658 C   0  0  0  0  0  0  0  0  0  0  0  0
   -8.4871    8.3995  -12.1648 N   0  0  0  0  0  0  0  0  0  0  0  0
   -6.2089    5.2584  -16.3396 C   0  0  0  0  0  0  0  0  0  0  0  0
   -3.5988    5.5534  -18.1193 S   0  0  0  0  0  0  0  0  0  0  0  0
  1  2  1  0
  2  3  2  0
  3  4  1  0
  4  5  2  0
  5  6  1  0
  6  7  2  0
  7  8  1  0
  8  9  2  0
  9 10  1  0
 10 11  1  0
 11 12  2  0
 11 13  1  0
 13 14  1  0
 14 15  2  0
 15 16  1  0
 16 17  3  0
 15 18  1  0
 18 19  1  0
 18 20  2  0
 20 21  1  0
 21 22  1  0
 22 23  1  0
 22 24  1  0
 21 25  2  0
 25 26  1  0
 26 27  3  0
 10 28  2  0
  5 29  1  0
 29  2  1  0
 28  6  1  0
 25 14  1  0
M  END
>  <name>  (1261) 
P142460

>  <alias>  (1261) 
None

>  <smina_score_min>  (1261) 
-6.605

>  <exports>  (1261) 
['/opt/xchem-fragalysis-2/maxwin/BulkDock/OUTPUTS/openbind_xx01zvns2b_c2_elabs_1LOUTNY.sdf', '/opt/xchem-fragalysis-2/maxwin/BulkDock/OUTPUTS/openbind_xx01zvns2b_c2_elabs_1LSYIIV.sdf']

>  <tags>  (1261) 
syndirella_placed,openbind_xx01zvns2b_c2_elabs,openbind_xx01zvns2b_c2_elabs_scored_6.2plus,syndirella_product,openbind_xx01zvns2b_c2_elabs_scored,openbind_xx01zvns2b_c2_elabs_scored_top80percent,BulkDock Fragalysis export

>  <subsites>  (1261) 
1 - Z4590/B/203/1

>  <smiles>  (1261) 
Cc1cnc(-c2cccc(C(=O)Nc3c(C#N)c(Br)nc(C(C)C)c3C#N)c2)s1

>  <HIPPO Pose ID>  (1261) 
142460

>  <energy_score>  (1261) 
-64.11107

>  <inchikey>  (1261) 
BBRIFXLAVOHFIW-UHFFFAOYSA-N

>  <gnina_score_min>  (1261) 
6.3

>  <gnina_score>  (1261) 
6.429

>  <ref_mols>  (1261) 
Z1274a

>  <HIPPO Compound ID>  (1261) 
200120

>  <distance_score>  (1261) 
0.700264

>  <rmsd(smina/fragmenstein)>  (1261) 
0.958

>  <ref_pdb>  (1261) 
Z1274a

>  <inspiration_score>  (1261) 
None

$$$$
P142471
     RDKit          3D

 29 32  0  0  0  0  0  0  0  0999 V2000
   -3.6668    4.8676  -22.0544 C   0  0  0  0  0  0  0  0  0  0  0  0
   -3.8551    5.0219  -20.5934 C   0  0  0  0  0  0  0  0  0  0  0  0
   -2.8789    5.3204  -19.6679 C   0  0  0  0  0  0  0  0  0  0  0  0
   -3.5631    5.4093  -18.1069 S   0  0  0  0  0  0  0  0  0  0  0  0
   -5.1108    4.9842  -18.7485 C   0  0  0  0  0  0  0  0  0  0  0  0
   -6.2841    4.7759  -17.8730 C   0  0  0  0  0  0  0  0  0  0  0  0
   -7.4506    4.2081  -18.4124 C   0  0  0  0  0  0  0  0  0  0  0  0
   -8.5789    3.9703  -17.6229 C   0  0  0  0  0  0  0  0  0  0  0  0
   -8.5659    4.3023  -16.2709 C   0  0  0  0  0  0  0  0  0  0  0  0
   -7.4225    4.8693  -15.7129 C   0  0  0  0  0  0  0  0  0  0  0  0
   -7.4059    5.3652  -14.3107 C   0  0  0  0  0  0  0  0  0  0  0  0
   -6.9829    6.4404  -14.1296 O   0  0  0  0  0  0  0  0  0  0  0  0
   -7.9882    4.3324  -13.3106 N   0  0  0  0  0  0  0  0  0  0  0  0
   -8.0806    4.3709  -11.9033 C   0  0  0  0  0  0  0  0  0  0  0  0
   -8.1792    3.1200  -11.2802 C   0  0  0  0  0  0  0  0  0  0  0  0
   -8.2051    3.0439   -9.8971 C   0  0  0  0  0  0  0  0  0  0  0  0
   -8.1506    4.1222   -9.0968 N   0  0  0  0  0  0  0  0  0  0  0  0
   -8.0860    5.3204   -9.7151 C   0  0  0  0  0  0  0  0  0  0  0  0
   -8.0836    5.5249  -11.0997 C   0  0  0  0  0  0  0  0  0  0  0  0
   -8.1241    6.9310  -11.6443 C   0  0  0  0  0  0  0  0  0  0  0  0
   -8.6904    8.0303  -10.7250 C   0  0  0  0  0  0  0  0  0  0  0  0
   -9.0365    9.3212  -11.4932 C   0  0  0  0  0  0  0  0  0  0  0  0
   -7.8078    9.9274  -12.1981 C   0  0  0  0  0  0  0  0  0  0  0  0
   -7.9280   11.4307  -12.4628 C   0  0  0  0  0  0  0  0  0  0  0  0
   -9.3771   11.8737  -12.5978 C   0  0  0  0  0  0  0  0  0  0  0  0
  -10.1767   11.5836  -11.3272 C   0  0  0  0  0  0  0  0  0  0  0  0
   -9.6886   10.3499  -10.5627 C   0  0  0  0  0  0  0  0  0  0  0  0
   -6.2941    5.1115  -16.5101 C   0  0  0  0  0  0  0  0  0  0  0  0
   -5.1169    4.8203  -20.0608 N   0  0  0  0  0  0  0  0  0  0  0  0
  1  2  1  0
  2  3  2  0
  3  4  1  0
  4  5  1  0
  5  6  1  0
  6  7  2  0
  7  8  1  0
  8  9  2  0
  9 10  1  0
 10 11  1  0
 11 12  2  0
 11 13  1  0
 13 14  1  0
 14 15  2  0
 15 16  1  0
 16 17  2  0
 17 18  1  0
 18 19  2  0
 19 20  1  0
 20 21  1  0
 21 22  1  0
 22 23  1  0
 23 24  1  0
 24 25  1  0
 25 26  1  0
 26 27  1  0
 10 28  2  0
  5 29  2  0
 29  2  1  0
 28  6  1  0
 19 14  1  0
 27 22  1  0
M  END
>  <name>  (1262) 
P142471

>  <alias>  (1262) 
None

>  <smina_score_min>  (1262) 
-7.877

>  <exports>  (1262) 
['/opt/xchem-fragalysis-2/maxwin/BulkDock/OUTPUTS/openbind_xx01zvns2b_c2_elabs_1LOUTNY.sdf', '/opt/xchem-fragalysis-2/maxwin/BulkDock/OUTPUTS/openbind_xx01zvns2b_c2_elabs_1LSYIIV.sdf']

>  <tags>  (1262) 
syndirella_placed,openbind_xx01zvns2b_c2_elabs,openbind_xx01zvns2b_c2_elabs_scored_6.2plus,syndirella_product,openbind_xx01zvns2b_c2_elabs_scored,openbind_xx01zvns2b_c2_elabs_scored_top80percent,BulkDock Fragalysis export

>  <subsites>  (1262) 
1 - Z4590/B/203/1

>  <smiles>  (1262) 
Cc1csc(-c2cccc(C(=O)Nc3ccncc3CCC3CCCCC3)c2)n1

>  <HIPPO Pose ID>  (1262) 
142471

>  <energy_score>  (1262) 
-52.333966

>  <inchikey>  (1262) 
HHRWYXKGPFRASS-UHFFFAOYSA-N

>  <gnina_score_min>  (1262) 
6.282

>  <gnina_score>  (1262) 
6.178

>  <ref_mols>  (1262) 
Z1274a

>  <HIPPO Compound ID>  (1262) 
200134

>  <distance_score>  (1262) 
0.461255

>  <rmsd(smina/fragmenstein)>  (1262) 
0.878

>  <ref_pdb>  (1262) 
Z1274a

>  <inspiration_score>  (1262) 
None

$$$$
P142475
     RDKit          3D

 30 34  0  0  0  0  0  0  0  0999 V2000
   -3.9666    4.9744  -22.1003 C   0  0  0  0  0  0  0  0  0  0  0  0
   -3.9677    5.1036  -20.6256 C   0  0  0  0  0  0  0  0  0  0  0  0
   -2.8716    5.3377  -19.8242 C   0  0  0  0  0  0  0  0  0  0  0  0
   -3.3559    5.4321  -18.1913 S   0  0  0  0  0  0  0  0  0  0  0  0
   -4.9863    5.0769  -18.6405 C   0  0  0  0  0  0  0  0  0  0  0  0
   -6.0513    4.9013  -17.6293 C   0  0  0  0  0  0  0  0  0  0  0  0
   -7.3529    4.5812  -18.0510 C   0  0  0  0  0  0  0  0  0  0  0  0
   -8.3707    4.3300  -17.1280 C   0  0  0  0  0  0  0  0  0  0  0  0
   -8.1041    4.3993  -15.7608 C   0  0  0  0  0  0  0  0  0  0  0  0
   -6.8176    4.7145  -15.3113 C   0  0  0  0  0  0  0  0  0  0  0  0
   -6.4384    4.6454  -13.8583 C   0  0  0  0  0  0  0  0  0  0  0  0
   -5.4111    4.1722  -13.5716 O   0  0  0  0  0  0  0  0  0  0  0  0
   -7.5845    5.1671  -12.9641 N   0  0  0  0  0  0  0  0  0  0  0  0
   -7.6645    5.2992  -11.5713 C   0  0  0  0  0  0  0  0  0  0  0  0
   -7.5831    4.1678  -10.7408 C   0  0  0  0  0  0  0  0  0  0  0  0
   -8.0277    4.3278   -9.4259 C   0  0  0  0  0  0  0  0  0  0  0  0
   -8.4039    5.5134   -8.9076 N   0  0  0  0  0  0  0  0  0  0  0  0
   -8.3780    6.5936   -9.6786 C   0  0  0  0  0  0  0  0  0  0  0  0
   -8.7433    7.7798   -9.0620 C   0  0  0  0  0  0  0  0  0  0  0  0
   -8.7835    8.9921   -9.7384 C   0  0  0  0  0  0  0  0  0  0  0  0
   -8.3923    9.0263  -11.0616 C   0  0  0  0  0  0  0  0  0  0  0  0
   -7.9899    7.8436  -11.6954 C   0  0  0  0  0  0  0  0  0  0  0  0
   -7.3178    8.0711  -13.2749 Cl  0  0  0  0  0  0  0  0  0  0  0  0
   -8.0187    6.5758  -11.0358 C   0  0  0  0  0  0  0  0  0  0  0  0
   -8.1111    3.2065   -8.4342 C   0  0  0  0  0  0  0  0  0  0  0  0
   -7.9421    1.8443   -9.0692 C   0  0  0  0  0  0  0  0  0  0  0  0
   -6.7819    1.8802  -10.0534 C   0  0  0  0  0  0  0  0  0  0  0  0
   -7.1376    2.8092  -11.2143 C   0  0  0  0  0  0  0  0  0  0  0  0
   -5.8075    4.9755  -16.2454 C   0  0  0  0  0  0  0  0  0  0  0  0
   -5.1620    4.9500  -19.9443 N   0  0  0  0  0  0  0  0  0  0  0  0
  1  2  1  0
  2  3  2  0
  3  4  1  0
  4  5  1  0
  5  6  1  0
  6  7  2  0
  7  8  1  0
  8  9  2  0
  9 10  1  0
 10 11  1  0
 11 12  2  0
 11 13  1  0
 13 14  1  0
 14 15  2  0
 15 16  1  0
 16 17  2  0
 17 18  1  0
 18 19  2  0
 19 20  1  0
 20 21  2  0
 21 22  1  0
 22 23  1  0
 22 24  2  0
 16 25  1  0
 25 26  1  0
 26 27  1  0
 27 28  1  0
 10 29  2  0
  5 30  2  0
 30  2  1  0
 29  6  1  0
 24 14  1  0
 28 15  1  0
 24 18  1  0
M  END
>  <name>  (1263) 
P142475

>  <alias>  (1263) 
None

>  <smina_score_min>  (1263) 
-7.992

>  <exports>  (1263) 
['/opt/xchem-fragalysis-2/maxwin/BulkDock/OUTPUTS/openbind_xx01zvns2b_c2_elabs_1LOUTNY.sdf', '/opt/xchem-fragalysis-2/maxwin/BulkDock/OUTPUTS/openbind_xx01zvns2b_c2_elabs_1LSYIIV.sdf']

>  <tags>  (1263) 
syndirella_placed,openbind_xx01zvns2b_c2_elabs,openbind_xx01zvns2b_c2_elabs_scored_6.2plus,syndirella_product,openbind_xx01zvns2b_c2_elabs_scored,openbind_xx01zvns2b_c2_elabs_scored_top80percent,BulkDock Fragalysis export

>  <subsites>  (1263) 
1 - Z4590/B/203/1

>  <smiles>  (1263) 
Cc1csc(-c2cccc(C(=O)Nc3c4c(nc5cccc(Cl)c35)CCCC4)c2)n1

>  <HIPPO Pose ID>  (1263) 
142475

>  <energy_score>  (1263) 
-51.532937

>  <inchikey>  (1263) 
KCBVATGKPNLIPU-UHFFFAOYSA-N

>  <gnina_score_min>  (1263) 
6.365

>  <gnina_score>  (1263) 
6.367

>  <ref_mols>  (1263) 
Z1274a

>  <HIPPO Compound ID>  (1263) 
200139

>  <distance_score>  (1263) 
0.953873

>  <rmsd(smina/fragmenstein)>  (1263) 
0.553

>  <ref_pdb>  (1263) 
Z1274a

>  <inspiration_score>  (1263) 
None

$$$$
P142477
     RDKit          3D

 30 34  0  0  0  0  0  0  0  0999 V2000
   -1.6367    5.9505  -20.1804 C   0  0  0  0  0  0  0  0  0  0  0  0
   -3.0227    5.5163  -19.8753 C   0  0  0  0  0  0  0  0  0  0  0  0
   -4.0105    5.0663  -20.7211 C   0  0  0  0  0  0  0  0  0  0  0  0
   -5.2162    4.7585  -20.1234 N   0  0  0  0  0  0  0  0  0  0  0  0
   -5.1620    5.0039  -18.8242 C   0  0  0  0  0  0  0  0  0  0  0  0
   -6.2911    4.8245  -17.8885 C   0  0  0  0  0  0  0  0  0  0  0  0
   -7.4638    4.1994  -18.3416 C   0  0  0  0  0  0  0  0  0  0  0  0
   -8.5606    4.0167  -17.4978 C   0  0  0  0  0  0  0  0  0  0  0  0
   -8.5121    4.4741  -16.1825 C   0  0  0  0  0  0  0  0  0  0  0  0
   -7.3647    5.1152  -15.7111 C   0  0  0  0  0  0  0  0  0  0  0  0
   -7.3094    5.7554  -14.3588 C   0  0  0  0  0  0  0  0  0  0  0  0
   -6.7810    6.7912  -14.2568 O   0  0  0  0  0  0  0  0  0  0  0  0
   -8.0065    4.8791  -13.2967 N   0  0  0  0  0  0  0  0  0  0  0  0
   -8.1147    5.0440  -11.9001 C   0  0  0  0  0  0  0  0  0  0  0  0
   -8.0509    3.8802  -11.1329 C   0  0  0  0  0  0  0  0  0  0  0  0
   -8.1491    3.9642   -9.7480 C   0  0  0  0  0  0  0  0  0  0  0  0
   -8.2792    5.1239   -9.0842 N   0  0  0  0  0  0  0  0  0  0  0  0
   -8.3363    6.2473   -9.8104 C   0  0  0  0  0  0  0  0  0  0  0  0
   -8.5049    7.4321   -9.1087 C   0  0  0  0  0  0  0  0  0  0  0  0
   -8.6576    8.6597   -9.7503 C   0  0  0  0  0  0  0  0  0  0  0  0
   -8.6392    8.7096  -11.1330 C   0  0  0  0  0  0  0  0  0  0  0  0
   -8.4570    7.5331  -11.8616 C   0  0  0  0  0  0  0  0  0  0  0  0
   -8.2759    6.2800  -11.2295 C   0  0  0  0  0  0  0  0  0  0  0  0
   -8.0086    2.6826   -8.9747 C   0  0  0  0  0  0  0  0  0  0  0  0
   -6.7823    1.9232   -9.5117 C   0  0  0  0  0  0  0  0  0  0  0  0
   -6.6108    1.8885  -10.9816 N   0  0  0  0  0  0  0  0  0  0  0  0
   -5.3249    2.4758  -11.3637 C   0  0  0  0  0  0  0  0  0  0  0  0
   -7.7432    2.5175  -11.6656 C   0  0  0  0  0  0  0  0  0  0  0  0
   -6.2622    5.2804  -16.5600 C   0  0  0  0  0  0  0  0  0  0  0  0
   -3.6147    5.5427  -18.2752 S   0  0  0  0  0  0  0  0  0  0  0  0
  1  2  1  0
  2  3  2  0
  3  4  1  0
  4  5  2  0
  5  6  1  0
  6  7  2  0
  7  8  1  0
  8  9  2  0
  9 10  1  0
 10 11  1  0
 11 12  2  0
 11 13  1  0
 13 14  1  0
 14 15  2  0
 15 16  1  0
 16 17  2  0
 17 18  1  0
 18 19  2  0
 19 20  1  0
 20 21  2  0
 21 22  1  0
 22 23  2  0
 16 24  1  0
 24 25  1  0
 25 26  1  0
 26 27  1  0
 26 28  1  0
 10 29  2  0
  5 30  1  0
 30  2  1  0
 29  6  1  0
 23 14  1  0
 28 15  1  0
 23 18  1  0
M  END
>  <name>  (1264) 
P142477

>  <alias>  (1264) 
None

>  <smina_score_min>  (1264) 
-8.469

>  <exports>  (1264) 
['/opt/xchem-fragalysis-2/maxwin/BulkDock/OUTPUTS/openbind_xx01zvns2b_c2_elabs_1LOUTNY.sdf', '/opt/xchem-fragalysis-2/maxwin/BulkDock/OUTPUTS/openbind_xx01zvns2b_c2_elabs_1LSYIIV.sdf']

>  <tags>  (1264) 
syndirella_placed,openbind_xx01zvns2b_c2_elabs,openbind_xx01zvns2b_c2_elabs_scored_6.2plus,syndirella_product,openbind_xx01zvns2b_c2_elabs_scored,openbind_xx01zvns2b_c2_elabs_scored_top80percent,BulkDock Fragalysis export

>  <subsites>  (1264) 
1 - Z4590/B/203/1

>  <smiles>  (1264) 
Cc1cnc(-c2cccc(C(=O)Nc3c4c(nc5ccccc35)CCN(C)C4)c2)s1

>  <HIPPO Pose ID>  (1264) 
142477

>  <energy_score>  (1264) 
-61.135667

>  <inchikey>  (1264) 
VGKFGTFJYIJYNN-UHFFFAOYSA-N

>  <gnina_score_min>  (1264) 
6.383

>  <gnina_score>  (1264) 
6.46

>  <ref_mols>  (1264) 
Z1274a

>  <HIPPO Compound ID>  (1264) 
200141

>  <distance_score>  (1264) 
0.790796

>  <rmsd(smina/fragmenstein)>  (1264) 
0.945

>  <ref_pdb>  (1264) 
Z1274a

>  <inspiration_score>  (1264) 
None

$$$$
P142479
     RDKit          3D

 30 34  0  0  0  0  0  0  0  0999 V2000
   -1.7658    5.9934  -20.6166 C   0  0  0  0  0  0  0  0  0  0  0  0
   -3.1191    5.4860  -20.2773 C   0  0  0  0  0  0  0  0  0  0  0  0
   -4.0976    4.9770  -21.1003 C   0  0  0  0  0  0  0  0  0  0  0  0
   -5.2724    4.6018  -20.4796 N   0  0  0  0  0  0  0  0  0  0  0  0
   -5.2065    4.8581  -19.1827 C   0  0  0  0  0  0  0  0  0  0  0  0
   -6.2959    4.6039  -18.2192 C   0  0  0  0  0  0  0  0  0  0  0  0
   -7.5056    4.0411  -18.6584 C   0  0  0  0  0  0  0  0  0  0  0  0
   -8.5703    3.8149  -17.7800 C   0  0  0  0  0  0  0  0  0  0  0  0
   -8.4461    4.1507  -16.4366 C   0  0  0  0  0  0  0  0  0  0  0  0
   -7.2471    4.6946  -15.9825 C   0  0  0  0  0  0  0  0  0  0  0  0
   -7.1502    5.3141  -14.6490 C   0  0  0  0  0  0  0  0  0  0  0  0
   -6.7329    6.4057  -14.6248 O   0  0  0  0  0  0  0  0  0  0  0  0
   -7.7199    4.4337  -13.5133 N   0  0  0  0  0  0  0  0  0  0  0  0
   -7.9757    4.7353  -12.1703 C   0  0  0  0  0  0  0  0  0  0  0  0
   -7.7400    3.7902  -11.1649 C   0  0  0  0  0  0  0  0  0  0  0  0
   -7.9491    4.1954   -9.8472 C   0  0  0  0  0  0  0  0  0  0  0  0
   -8.1644    5.4775   -9.5113 N   0  0  0  0  0  0  0  0  0  0  0  0
   -8.3497    6.3809  -10.4804 C   0  0  0  0  0  0  0  0  0  0  0  0
   -8.5164    7.7152  -10.1330 C   0  0  0  0  0  0  0  0  0  0  0  0
   -8.1731    8.1325   -8.7469 C   0  0  0  0  0  0  0  0  0  0  0  0
   -8.9001    8.6933  -11.0623 C   0  0  0  0  0  0  0  0  0  0  0  0
   -9.1190    8.3339  -12.3736 C   0  0  0  0  0  0  0  0  0  0  0  0
   -8.8567    7.0235  -12.7500 C   0  0  0  0  0  0  0  0  0  0  0  0
   -8.3866    6.0464  -11.8320 C   0  0  0  0  0  0  0  0  0  0  0  0
   -7.8422    3.2684   -8.6729 C   0  0  0  0  0  0  0  0  0  0  0  0
   -7.7696    1.8217   -9.1156 C   0  0  0  0  0  0  0  0  0  0  0  0
   -6.6929    1.7050  -10.1886 C   0  0  0  0  0  0  0  0  0  0  0  0
   -7.1696    2.4300  -11.4490 C   0  0  0  0  0  0  0  0  0  0  0  0
   -6.1863    4.9235  -16.8630 C   0  0  0  0  0  0  0  0  0  0  0  0
   -3.6825    5.4974  -18.6688 S   0  0  0  0  0  0  0  0  0  0  0  0
  1  2  1  0
  2  3  2  0
  3  4  1  0
  4  5  2  0
  5  6  1  0
  6  7  2  0
  7  8  1  0
  8  9  2  0
  9 10  1  0
 10 11  1  0
 11 12  2  0
 11 13  1  0
 13 14  1  0
 14 15  2  0
 15 16  1  0
 16 17  2  0
 17 18  1  0
 18 19  2  0
 19 20  1  0
 19 21  1  0
 21 22  2  0
 22 23  1  0
 23 24  2  0
 16 25  1  0
 25 26  1  0
 26 27  1  0
 27 28  1  0
 10 29  2  0
  5 30  1  0
 30  2  1  0
 29  6  1  0
 24 14  1  0
 28 15  1  0
 24 18  1  0
M  END
>  <name>  (1265) 
P142479

>  <alias>  (1265) 
None

>  <smina_score_min>  (1265) 
-8.251

>  <exports>  (1265) 
['/opt/xchem-fragalysis-2/maxwin/BulkDock/OUTPUTS/openbind_xx01zvns2b_c2_elabs_1LOUTNY.sdf', '/opt/xchem-fragalysis-2/maxwin/BulkDock/OUTPUTS/openbind_xx01zvns2b_c2_elabs_1LSYIIV.sdf']

>  <tags>  (1265) 
syndirella_placed,openbind_xx01zvns2b_c2_elabs,openbind_xx01zvns2b_c2_elabs_scored_6.2plus,syndirella_product,openbind_xx01zvns2b_c2_elabs_scored,openbind_xx01zvns2b_c2_elabs_scored_top80percent,BulkDock Fragalysis export

>  <subsites>  (1265) 
1 - Z4590/B/203/1

>  <smiles>  (1265) 
Cc1cnc(-c2cccc(C(=O)Nc3c4c(nc5c(C)cccc35)CCCC4)c2)s1

>  <HIPPO Pose ID>  (1265) 
142479

>  <energy_score>  (1265) 
-41.102271

>  <inchikey>  (1265) 
JGXRFKNQBJRQEF-UHFFFAOYSA-N

>  <gnina_score_min>  (1265) 
6.362

>  <gnina_score>  (1265) 
6.364

>  <ref_mols>  (1265) 
Z1274a

>  <HIPPO Compound ID>  (1265) 
200143

>  <distance_score>  (1265) 
1.216795

>  <rmsd(smina/fragmenstein)>  (1265) 
0.621

>  <ref_pdb>  (1265) 
Z1274a

>  <inspiration_score>  (1265) 
None

$$$$
P142484
     RDKit          3D

 30 34  0  0  0  0  0  0  0  0999 V2000
   -3.5531    4.9252  -22.2755 C   0  0  0  0  0  0  0  0  0  0  0  0
   -3.7706    5.0176  -20.8146 C   0  0  0  0  0  0  0  0  0  0  0  0
   -2.8093    5.2859  -19.8648 C   0  0  0  0  0  0  0  0  0  0  0  0
   -3.5172    5.3255  -18.3159 S   0  0  0  0  0  0  0  0  0  0  0  0
   -5.0570    4.9236  -18.9977 C   0  0  0  0  0  0  0  0  0  0  0  0
   -6.2388    4.7026  -18.1416 C   0  0  0  0  0  0  0  0  0  0  0  0
   -7.3838    4.0808  -18.6629 C   0  0  0  0  0  0  0  0  0  0  0  0
   -8.5160    3.8512  -17.8725 C   0  0  0  0  0  0  0  0  0  0  0  0
   -8.5318    4.2520  -16.5405 C   0  0  0  0  0  0  0  0  0  0  0  0
   -7.4072    4.8790  -16.0102 C   0  0  0  0  0  0  0  0  0  0  0  0
   -7.4045    5.5072  -14.6701 C   0  0  0  0  0  0  0  0  0  0  0  0
   -6.9067    6.5598  -14.5870 O   0  0  0  0  0  0  0  0  0  0  0  0
   -8.1237    4.6547  -13.6055 N   0  0  0  0  0  0  0  0  0  0  0  0
   -8.2943    4.8688  -12.2317 C   0  0  0  0  0  0  0  0  0  0  0  0
   -8.1726    3.7981  -11.3520 C   0  0  0  0  0  0  0  0  0  0  0  0
   -8.0832    4.0582   -9.9885 C   0  0  0  0  0  0  0  0  0  0  0  0
   -8.0993    5.2978   -9.4823 N   0  0  0  0  0  0  0  0  0  0  0  0
   -8.2769    6.3257  -10.3315 C   0  0  0  0  0  0  0  0  0  0  0  0
   -8.2910    7.6185   -9.8247 C   0  0  0  0  0  0  0  0  0  0  0  0
   -7.9218    7.8203   -8.3984 C   0  0  0  0  0  0  0  0  0  0  0  0
   -8.5840    8.7404  -10.6174 C   0  0  0  0  0  0  0  0  0  0  0  0
   -8.8675    8.5769  -11.9561 C   0  0  0  0  0  0  0  0  0  0  0  0
   -8.7936    7.3007  -12.4940 C   0  0  0  0  0  0  0  0  0  0  0  0
   -8.4425    6.1695  -11.7150 C   0  0  0  0  0  0  0  0  0  0  0  0
   -7.8424    2.9049   -9.0536 C   0  0  0  0  0  0  0  0  0  0  0  0
   -6.7093    2.0188   -9.5856 C   0  0  0  0  0  0  0  0  0  0  0  0
   -6.6840    1.8762  -11.1098 C   0  0  0  0  0  0  0  0  0  0  0  0
   -7.9750    2.3780  -11.7482 C   0  0  0  0  0  0  0  0  0  0  0  0
   -6.2733    5.0982  -16.8020 C   0  0  0  0  0  0  0  0  0  0  0  0
   -5.0411    4.7900  -20.3127 N   0  0  0  0  0  0  0  0  0  0  0  0
  1  2  1  0
  2  3  2  0
  3  4  1  0
  4  5  1  0
  5  6  1  0
  6  7  2  0
  7  8  1  0
  8  9  2  0
  9 10  1  0
 10 11  1  0
 11 12  2  0
 11 13  1  0
 13 14  1  0
 14 15  2  0
 15 16  1  0
 16 17  2  0
 17 18  1  0
 18 19  2  0
 19 20  1  0
 19 21  1  0
 21 22  2  0
 22 23  1  0
 23 24  2  0
 16 25  1  0
 25 26  1  0
 26 27  1  0
 27 28  1  0
 10 29  2  0
  5 30  2  0
 30  2  1  0
 29  6  1  0
 24 14  1  0
 28 15  1  0
 24 18  1  0
M  END
>  <name>  (1266) 
P142484

>  <alias>  (1266) 
None

>  <smina_score_min>  (1266) 
-8.306

>  <exports>  (1266) 
['/opt/xchem-fragalysis-2/maxwin/BulkDock/OUTPUTS/openbind_xx01zvns2b_c2_elabs_1LOUTNY.sdf', '/opt/xchem-fragalysis-2/maxwin/BulkDock/OUTPUTS/openbind_xx01zvns2b_c2_elabs_1LSYIIV.sdf']

>  <tags>  (1266) 
syndirella_placed,openbind_xx01zvns2b_c2_elabs,openbind_xx01zvns2b_c2_elabs_scored_6.2plus,syndirella_product,openbind_xx01zvns2b_c2_elabs_scored,openbind_xx01zvns2b_c2_elabs_scored_top80percent,BulkDock Fragalysis export

>  <subsites>  (1266) 
1 - Z4590/B/203/1

>  <smiles>  (1266) 
Cc1csc(-c2cccc(C(=O)Nc3c4c(nc5c(C)cccc35)CCCC4)c2)n1

>  <HIPPO Pose ID>  (1266) 
142484

>  <energy_score>  (1266) 
-55.808254

>  <inchikey>  (1266) 
CDXCKJMWIFAESR-UHFFFAOYSA-N

>  <gnina_score_min>  (1266) 
6.268

>  <gnina_score>  (1266) 
6.473

>  <ref_mols>  (1266) 
Z1274a

>  <HIPPO Compound ID>  (1266) 
200154

>  <distance_score>  (1266) 
1.227516

>  <rmsd(smina/fragmenstein)>  (1266) 
0.674

>  <ref_pdb>  (1266) 
Z1274a

>  <inspiration_score>  (1266) 
None

$$$$
P142485
     RDKit          3D

 31 35  0  0  0  0  0  0  0  0999 V2000
   -8.5801   11.2264  -11.9299 C   0  0  0  0  0  0  0  0  0  0  0  0
   -8.5440    9.8825  -12.3927 O   0  0  0  0  0  0  0  0  0  0  0  0
   -8.2982    8.9184  -11.4544 C   0  0  0  0  0  0  0  0  0  0  0  0
   -8.0901    9.1275  -10.1023 C   0  0  0  0  0  0  0  0  0  0  0  0
   -7.9123    8.0281   -9.2613 C   0  0  0  0  0  0  0  0  0  0  0  0
   -7.9274    6.7242   -9.7353 C   0  0  0  0  0  0  0  0  0  0  0  0
   -7.8521    5.7606   -8.8257 N   0  0  0  0  0  0  0  0  0  0  0  0
   -8.0392    4.4892   -9.2236 C   0  0  0  0  0  0  0  0  0  0  0  0
   -8.2270    4.1180  -10.5668 C   0  0  0  0  0  0  0  0  0  0  0  0
   -8.0829    5.1189  -11.5417 C   0  0  0  0  0  0  0  0  0  0  0  0
   -7.9611    4.7982  -12.9187 N   0  0  0  0  0  0  0  0  0  0  0  0
   -7.2089    5.5371  -14.0671 C   0  0  0  0  0  0  0  0  0  0  0  0
   -6.6409    6.5628  -14.0662 O   0  0  0  0  0  0  0  0  0  0  0  0
   -7.3094    4.8870  -15.4074 C   0  0  0  0  0  0  0  0  0  0  0  0
   -8.5118    4.3742  -15.8837 C   0  0  0  0  0  0  0  0  0  0  0  0
   -8.6355    4.0283  -17.2309 C   0  0  0  0  0  0  0  0  0  0  0  0
   -7.5641    4.2125  -18.1095 C   0  0  0  0  0  0  0  0  0  0  0  0
   -6.3399    4.7312  -17.6619 C   0  0  0  0  0  0  0  0  0  0  0  0
   -5.2445    4.9463  -18.6341 C   0  0  0  0  0  0  0  0  0  0  0  0
   -5.3433    4.7352  -19.9372 N   0  0  0  0  0  0  0  0  0  0  0  0
   -4.1606    5.0596  -20.5714 C   0  0  0  0  0  0  0  0  0  0  0  0
   -3.1397    5.4807  -19.7508 C   0  0  0  0  0  0  0  0  0  0  0  0
   -1.7567    5.8967  -20.0932 C   0  0  0  0  0  0  0  0  0  0  0  0
   -3.6828    5.4930  -18.1328 S   0  0  0  0  0  0  0  0  0  0  0  0
   -6.2334    5.0587  -16.2983 C   0  0  0  0  0  0  0  0  0  0  0  0
   -8.0655    6.4764  -11.1115 C   0  0  0  0  0  0  0  0  0  0  0  0
   -8.2852    7.6071  -11.9404 C   0  0  0  0  0  0  0  0  0  0  0  0
   -8.6054    2.6930  -10.8600 C   0  0  0  0  0  0  0  0  0  0  0  0
   -9.3297    2.1100   -9.6379 C   0  0  0  0  0  0  0  0  0  0  0  0
   -8.3790    2.0930   -8.4641 C   0  0  0  0  0  0  0  0  0  0  0  0
   -8.1444    3.5358   -8.0619 C   0  0  0  0  0  0  0  0  0  0  0  0
  1  2  1  0
  2  3  1  0
  3  4  2  0
  4  5  1  0
  5  6  2  0
  6  7  1  0
  7  8  2  0
  8  9  1  0
  9 10  2  0
 10 11  1  0
 11 12  1  0
 12 13  2  0
 12 14  1  0
 14 15  2  0
 15 16  1  0
 16 17  2  0
 17 18  1  0
 18 19  1  0
 19 20  2  0
 20 21  1  0
 21 22  2  0
 22 23  1  0
 22 24  1  0
 18 25  2  0
 10 26  1  0
 26 27  2  0
  9 28  1  0
 28 29  1  0
 29 30  1  0
 30 31  1  0
 27  3  1  0
 26  6  1  0
 31  8  1  0
 25 14  1  0
 24 19  1  0
M  END
>  <name>  (1267) 
P142485

>  <alias>  (1267) 
None

>  <smina_score_min>  (1267) 
-8.18

>  <exports>  (1267) 
['/opt/xchem-fragalysis-2/maxwin/BulkDock/OUTPUTS/openbind_xx01zvns2b_c2_elabs_1LOUTNY.sdf', '/opt/xchem-fragalysis-2/maxwin/BulkDock/OUTPUTS/openbind_xx01zvns2b_c2_elabs_1LSYIIV.sdf']

>  <tags>  (1267) 
syndirella_placed,openbind_xx01zvns2b_c2_elabs,openbind_xx01zvns2b_c2_elabs_scored_6.2plus,syndirella_product,openbind_xx01zvns2b_c2_elabs_scored,openbind_xx01zvns2b_c2_elabs_scored_top80percent,BulkDock Fragalysis export

>  <subsites>  (1267) 
1 - Z4590/B/203/1

>  <smiles>  (1267) 
COc1ccc2nc3c(c(NC(=O)c4cccc(-c5ncc(C)s5)c4)c2c1)CCCC3

>  <HIPPO Pose ID>  (1267) 
142485

>  <energy_score>  (1267) 
-57.478674

>  <inchikey>  (1267) 
JJGJAGZGNQRTAZ-UHFFFAOYSA-N

>  <gnina_score_min>  (1267) 
6.349

>  <gnina_score>  (1267) 
6.264

>  <ref_mols>  (1267) 
Z1274a

>  <HIPPO Compound ID>  (1267) 
200155

>  <distance_score>  (1267) 
0.893833

>  <rmsd(smina/fragmenstein)>  (1267) 
1.795

>  <ref_pdb>  (1267) 
Z1274a

>  <inspiration_score>  (1267) 
None

$$$$
P142487
     RDKit          3D

 31 35  0  0  0  0  0  0  0  0999 V2000
   -3.7767    4.8897  -22.1877 C   0  0  0  0  0  0  0  0  0  0  0  0
   -3.8712    5.0193  -20.7166 C   0  0  0  0  0  0  0  0  0  0  0  0
   -2.8282    5.2677  -19.8510 C   0  0  0  0  0  0  0  0  0  0  0  0
   -3.4103    5.3613  -18.2515 S   0  0  0  0  0  0  0  0  0  0  0  0
   -5.0131    5.0169  -18.8036 C   0  0  0  0  0  0  0  0  0  0  0  0
   -6.1323    4.8706  -17.8528 C   0  0  0  0  0  0  0  0  0  0  0  0
   -7.3164    4.2311  -18.2567 C   0  0  0  0  0  0  0  0  0  0  0  0
   -8.3785    4.0396  -17.3656 C   0  0  0  0  0  0  0  0  0  0  0  0
   -8.2841    4.5051  -16.0549 C   0  0  0  0  0  0  0  0  0  0  0  0
   -7.1288    5.1755  -15.6511 C   0  0  0  0  0  0  0  0  0  0  0  0
   -7.0498    5.8640  -14.3377 C   0  0  0  0  0  0  0  0  0  0  0  0
   -6.7660    6.9949  -14.3268 O   0  0  0  0  0  0  0  0  0  0  0  0
   -7.4000    4.9108  -13.1794 N   0  0  0  0  0  0  0  0  0  0  0  0
   -7.5648    5.1651  -11.7953 C   0  0  0  0  0  0  0  0  0  0  0  0
   -7.9264    6.3865  -11.2040 C   0  0  0  0  0  0  0  0  0  0  0  0
   -8.3292    6.3477   -9.8596 C   0  0  0  0  0  0  0  0  0  0  0  0
   -8.4298    5.2129   -9.1332 N   0  0  0  0  0  0  0  0  0  0  0  0
   -7.9877    4.0810   -9.6730 C   0  0  0  0  0  0  0  0  0  0  0  0
   -8.0204    2.9462   -8.9023 C   0  0  0  0  0  0  0  0  0  0  0  0
   -7.3427    1.8168   -9.3190 C   0  0  0  0  0  0  0  0  0  0  0  0
   -7.4015    0.7269   -8.5553 F   0  0  0  0  0  0  0  0  0  0  0  0
   -6.5737    1.8065  -10.4734 C   0  0  0  0  0  0  0  0  0  0  0  0
   -5.6152    0.6935  -10.7430 C   0  0  0  0  0  0  0  0  0  0  0  0
   -6.7002    2.8839  -11.3386 C   0  0  0  0  0  0  0  0  0  0  0  0
   -7.4450    4.0241  -10.9676 C   0  0  0  0  0  0  0  0  0  0  0  0
   -8.6466    7.6060   -9.0935 C   0  0  0  0  0  0  0  0  0  0  0  0
   -9.2110    8.7007   -9.9808 C   0  0  0  0  0  0  0  0  0  0  0  0
   -8.2330    8.9608  -11.1068 C   0  0  0  0  0  0  0  0  0  0  0  0
   -7.9526    7.7012  -11.9326 C   0  0  0  0  0  0  0  0  0  0  0  0
   -6.0648    5.3553  -16.5392 C   0  0  0  0  0  0  0  0  0  0  0  0
   -5.1042    4.8490  -20.1105 N   0  0  0  0  0  0  0  0  0  0  0  0
  1  2  1  0
  2  3  2  0
  3  4  1  0
  4  5  1  0
  5  6  1  0
  6  7  2  0
  7  8  1  0
  8  9  2  0
  9 10  1  0
 10 11  1  0
 11 12  2  0
 11 13  1  0
 13 14  1  0
 14 15  2  0
 15 16  1  0
 16 17  2  0
 17 18  1  0
 18 19  2  0
 19 20  1  0
 20 21  1  0
 20 22  2  0
 22 23  1  0
 22 24  1  0
 24 25  2  0
 16 26  1  0
 26 27  1  0
 27 28  1  0
 28 29  1  0
 10 30  2  0
  5 31  2  0
 31  2  1  0
 30  6  1  0
 25 14  1  0
 29 15  1  0
 25 18  1  0
M  END
>  <name>  (1268) 
P142487

>  <alias>  (1268) 
None

>  <smina_score_min>  (1268) 
-7.984

>  <exports>  (1268) 
['/opt/xchem-fragalysis-2/maxwin/BulkDock/OUTPUTS/openbind_xx01zvns2b_c2_elabs_1LOUTNY.sdf', '/opt/xchem-fragalysis-2/maxwin/BulkDock/OUTPUTS/openbind_xx01zvns2b_c2_elabs_1LSYIIV.sdf']

>  <tags>  (1268) 
syndirella_placed,openbind_xx01zvns2b_c2_elabs,openbind_xx01zvns2b_c2_elabs_scored_6.2plus,syndirella_product,openbind_xx01zvns2b_c2_elabs_scored,openbind_xx01zvns2b_c2_elabs_scored_top80percent,BulkDock Fragalysis export

>  <subsites>  (1268) 
1 - Z4590/B/203/1

>  <smiles>  (1268) 
Cc1csc(-c2cccc(C(=O)Nc3c4c(nc5cc(F)c(C)cc35)CCCC4)c2)n1

>  <HIPPO Pose ID>  (1268) 
142487

>  <energy_score>  (1268) 
-43.262715

>  <inchikey>  (1268) 
REBUSDDLOXSTLK-UHFFFAOYSA-N

>  <gnina_score_min>  (1268) 
6.301

>  <gnina_score>  (1268) 
6.352

>  <ref_mols>  (1268) 
Z1274a

>  <HIPPO Compound ID>  (1268) 
200157

>  <distance_score>  (1268) 
0.930385

>  <rmsd(smina/fragmenstein)>  (1268) 
0.929

>  <ref_pdb>  (1268) 
Z1274a

>  <inspiration_score>  (1268) 
None

$$$$
P142489
     RDKit          3D

 31 35  0  0  0  0  0  0  0  0999 V2000
   -1.7603    6.0025  -20.6875 C   0  0  0  0  0  0  0  0  0  0  0  0
   -3.0994    5.5511  -20.2325 C   0  0  0  0  0  0  0  0  0  0  0  0
   -4.1493    5.0448  -20.9640 C   0  0  0  0  0  0  0  0  0  0  0  0
   -5.2864    4.7337  -20.2463 N   0  0  0  0  0  0  0  0  0  0  0  0
   -5.1162    5.0249  -18.9672 C   0  0  0  0  0  0  0  0  0  0  0  0
   -6.1418    4.8437  -17.9200 C   0  0  0  0  0  0  0  0  0  0  0  0
   -7.4411    4.4522  -18.2829 C   0  0  0  0  0  0  0  0  0  0  0  0
   -8.4250    4.2216  -17.3197 C   0  0  0  0  0  0  0  0  0  0  0  0
   -8.1231    4.3797  -15.9688 C   0  0  0  0  0  0  0  0  0  0  0  0
   -6.8387    4.7775  -15.5810 C   0  0  0  0  0  0  0  0  0  0  0  0
   -6.4157    4.8359  -14.1458 C   0  0  0  0  0  0  0  0  0  0  0  0
   -5.3468    4.4624  -13.8645 O   0  0  0  0  0  0  0  0  0  0  0  0
   -7.5746    5.3193  -13.2488 N   0  0  0  0  0  0  0  0  0  0  0  0
   -7.6921    5.3540  -11.8518 C   0  0  0  0  0  0  0  0  0  0  0  0
   -8.2445    6.5126  -11.2907 C   0  0  0  0  0  0  0  0  0  0  0  0
   -8.4972    6.5072   -9.9222 C   0  0  0  0  0  0  0  0  0  0  0  0
   -8.4059    5.3951   -9.1631 N   0  0  0  0  0  0  0  0  0  0  0  0
   -7.9055    4.2826   -9.7116 C   0  0  0  0  0  0  0  0  0  0  0  0
   -7.8820    3.1508   -8.9288 C   0  0  0  0  0  0  0  0  0  0  0  0
   -7.2564    2.0033   -9.3790 C   0  0  0  0  0  0  0  0  0  0  0  0
   -7.3144    0.8997   -8.6295 F   0  0  0  0  0  0  0  0  0  0  0  0
   -6.5647    1.9835  -10.5760 C   0  0  0  0  0  0  0  0  0  0  0  0
   -5.7017    0.8252  -10.9480 C   0  0  0  0  0  0  0  0  0  0  0  0
   -6.7321    3.0619  -11.4375 C   0  0  0  0  0  0  0  0  0  0  0  0
   -7.4206    4.2272  -11.0354 C   0  0  0  0  0  0  0  0  0  0  0  0
   -8.9467    7.7568   -9.2097 C   0  0  0  0  0  0  0  0  0  0  0  0
   -8.5519    9.0313   -9.9447 C   0  0  0  0  0  0  0  0  0  0  0  0
   -9.0495    8.9479  -11.3789 C   0  0  0  0  0  0  0  0  0  0  0  0
   -8.4071    7.7694  -12.1098 C   0  0  0  0  0  0  0  0  0  0  0  0
   -5.8626    5.0087  -16.5541 C   0  0  0  0  0  0  0  0  0  0  0  0
   -3.5459    5.6409  -18.5895 S   0  0  0  0  0  0  0  0  0  0  0  0
  1  2  1  0
  2  3  2  0
  3  4  1  0
  4  5  2  0
  5  6  1  0
  6  7  2  0
  7  8  1  0
  8  9  2  0
  9 10  1  0
 10 11  1  0
 11 12  2  0
 11 13  1  0
 13 14  1  0
 14 15  2  0
 15 16  1  0
 16 17  2  0
 17 18  1  0
 18 19  2  0
 19 20  1  0
 20 21  1  0
 20 22  2  0
 22 23  1  0
 22 24  1  0
 24 25  2  0
 16 26  1  0
 26 27  1  0
 27 28  1  0
 28 29  1  0
 10 30  2  0
  5 31  1  0
 31  2  1  0
 30  6  1  0
 25 14  1  0
 29 15  1  0
 25 18  1  0
M  END
>  <name>  (1269) 
P142489

>  <alias>  (1269) 
None

>  <smina_score_min>  (1269) 
-8.016

>  <exports>  (1269) 
['/opt/xchem-fragalysis-2/maxwin/BulkDock/OUTPUTS/openbind_xx01zvns2b_c2_elabs_1LOUTNY.sdf', '/opt/xchem-fragalysis-2/maxwin/BulkDock/OUTPUTS/openbind_xx01zvns2b_c2_elabs_1LSYIIV.sdf']

>  <tags>  (1269) 
syndirella_placed,openbind_xx01zvns2b_c2_elabs,openbind_xx01zvns2b_c2_elabs_scored_6.2plus,syndirella_product,openbind_xx01zvns2b_c2_elabs_scored,openbind_xx01zvns2b_c2_elabs_scored_top80percent,BulkDock Fragalysis export

>  <subsites>  (1269) 
1 - Z4590/B/203/1

>  <smiles>  (1269) 
Cc1cnc(-c2cccc(C(=O)Nc3c4c(nc5cc(F)c(C)cc35)CCCC4)c2)s1

>  <HIPPO Pose ID>  (1269) 
142489

>  <energy_score>  (1269) 
-34.700419

>  <inchikey>  (1269) 
NDVYEIDILZZIJV-UHFFFAOYSA-N

>  <gnina_score_min>  (1269) 
6.256

>  <gnina_score>  (1269) 
6.347

>  <ref_mols>  (1269) 
Z1274a

>  <HIPPO Compound ID>  (1269) 
200160

>  <distance_score>  (1269) 
0.95359

>  <rmsd(smina/fragmenstein)>  (1269) 
0.914

>  <ref_pdb>  (1269) 
Z1274a

>  <inspiration_score>  (1269) 
None

$$$$
