A71EV2A-x4777_A_201_1_A71EV2A-x0911+A+147+1__LIG
     RDKit          3D

 24 25  0  0  0  0  0  0  0  0999 V2000
    9.9680   16.5590   18.9060 O   0  0  0  0  0  0  0  0  0  0  0  0
   10.5520   15.5570   19.3300 C   0  0  0  0  0  0  0  0  0  0  0  0
   11.1800   14.6710   18.5510 N   0  0  0  0  0  0  0  0  0  0  0  0
   10.5840   15.4270   20.8410 C   0  0  2  0  0  0  0  0  0  0  0  0
   12.3250   15.3080   21.3560 S   0  0  0  0  0  0  0  0  0  0  0  0
   11.9970   15.1350   23.1200 C   0  0  0  0  0  0  0  0  0  0  0  0
   11.1650   13.9190   23.4220 C   0  0  0  0  0  0  0  0  0  0  0  0
    9.9430   14.1090   21.2240 C   0  0  0  0  0  0  0  0  0  0  0  0
    9.8880   13.9350   22.6790 N   0  0  0  0  0  0  0  0  0  0  0  0
    8.6970   13.6020   23.2150 C   0  0  0  0  0  0  0  0  0  0  0  0
    7.6820   13.4940   22.5410 O   0  0  0  0  0  0  0  0  0  0  0  0
    8.7060   13.3240   24.7040 C   0  0  0  0  0  0  0  0  0  0  0  0
    7.7030   12.2600   25.0750 C   0  0  0  0  0  0  0  0  0  0  0  0
    7.9050   10.9260   24.7350 C   0  0  0  0  0  0  0  0  0  0  0  0
    8.7880   10.7300   23.7040 O   0  0  0  0  0  0  0  0  0  0  0  0
    9.5620    9.5300   23.6800 C   0  0  0  0  0  0  0  0  0  0  0  0
    6.6410   12.5800   25.9040 C   0  0  0  0  0  0  0  0  0  0  0  0
    5.8270   11.6120   26.4660 C   0  0  0  0  0  0  0  0  0  0  0  0
    4.7500   12.0290   27.4130 C   0  0  0  0  0  0  0  0  0  0  0  0
    4.3650   11.0560   28.2280 F   0  0  0  0  0  0  0  0  0  0  0  0
    3.6560   12.5020   26.7990 F   0  0  0  0  0  0  0  0  0  0  0  0
    5.1390   13.0500   28.1620 F   0  0  0  0  0  0  0  0  0  0  0  0
    6.0940   10.2780   26.1740 C   0  0  0  0  0  0  0  0  0  0  0  0
    7.1160    9.9300   25.3010 C   0  0  0  0  0  0  0  0  0  0  0  0
 16 15  1  0
 15 14  1  0
 14 24  2  0
 24 23  1  0
 23 18  2  0
 19 18  1  0
 22 19  1  0
 21 19  1  0
 20 19  1  0
 18 17  1  0
 17 13  2  0
 14 13  1  0
 13 12  1  0
 12 10  1  0
 11 10  2  0
 10  9  1  0
  9  7  1  0
  7  6  1  0
  6  5  1  0
  5  4  1  0
  4  2  1  6
  3  2  1  0
  2  1  2  0
  8  4  1  0
  9  8  1  0
M  END
$$$$
