XX01ZVNS2B-x0990_B_302_1_XX01ZVNS2B-x0788+B+303+1__LIG
     RDKit          3D

 11 11  0  0  0  0  0  0  0  0999 V2000
   -5.6340    3.1000  -27.7550 O   0  0  0  0  0  0  0  0  0  0  0  0
   -6.1540    2.1610  -28.3310 C   0  0  0  0  0  0  0  0  0  0  0  0
   -7.3690    2.2700  -28.9230 N   0  0  0  0  0  0  0  0  0  0  0  0
   -7.6440    3.2820  -29.9360 C   0  0  0  0  0  0  0  0  0  0  0  0
   -8.4910    1.3990  -28.5950 C   0  0  0  0  0  0  0  0  0  0  0  0
   -5.5490    0.9530  -28.4380 N   0  0  0  0  0  0  0  0  0  0  0  0
   -4.8330    0.4110  -27.2750 C   0  0  0  0  0  0  0  0  0  0  0  0
   -4.3480   -1.0080  -27.5150 C   0  0  0  0  0  0  0  0  0  0  0  0
   -5.1290   -1.6640  -28.5830 N   0  0  0  0  0  0  0  0  0  0  0  0
   -4.9760   -0.9620  -29.8820 C   0  0  0  0  0  0  0  0  0  0  0  0
   -4.9720    0.5520  -29.7290 C   0  0  0  0  0  0  0  0  0  0  0  0
  5  3  1  0
  4  3  1  0
  3  2  1  0
  2  1  2  0
  6  2  1  0
  6 11  1  0
 11 10  1  0
 10  9  1  0
  9  8  1  0
  8  7  1  0
  7  6  1  0
M  END
$$$$
