A71EV2A-x4456_A_201_1_A71EV2A-x0911+A+147+1__LIG
     RDKit          3D

 21 23  0  0  0  0  0  0  0  0999 V2000
    7.5770   13.3890   22.4230 O   0  0  0  0  0  0  0  0  0  0  0  0
    8.5050   13.6060   23.1390 C   0  0  0  0  0  0  0  0  0  0  0  0
    9.3950   14.6210   22.9130 N   0  0  0  0  0  0  0  0  0  0  0  0
   10.4420   15.2470   23.7470 C   0  0  0  0  0  0  0  0  0  0  0  0
   11.8240   15.1810   23.0910 C   0  0  0  0  0  0  0  0  0  0  0  0
   11.7840   15.7250   21.6520 C   0  0  0  0  0  0  0  0  0  0  0  0
    9.3550   15.2100   21.5680 C   0  0  0  0  0  0  0  0  0  0  0  0
   10.6850   14.9880   20.8480 C   0  0  1  0  0  0  0  0  0  0  0  0
   10.5970   15.4990   19.4200 C   0  0  0  0  0  0  0  0  0  0  0  0
   10.2250   16.6490   19.1750 O   0  0  0  0  0  0  0  0  0  0  0  0
   10.9290   14.6270   18.4660 N   0  0  0  0  0  0  0  0  0  0  0  0
    8.8130   12.3160   23.8820 C   0  0  2  0  0  0  0  0  0  0  0  0
    7.8670   12.0320   25.0260 C   0  0  0  0  0  0  0  0  0  0  0  0
    8.0640   10.6580   24.9530 C   0  0  0  0  0  0  0  0  0  0  0  0
    9.5170   10.4380   24.5830 C   0  0  0  0  0  0  0  0  0  0  0  0
   10.0110   11.8730   24.4020 C   0  0  0  0  0  0  0  0  0  0  0  0
    6.7370   12.5350   25.6840 C   0  0  0  0  0  0  0  0  0  0  0  0
    6.5470   13.8680   25.8880 O   0  0  0  0  0  0  0  0  0  0  0  0
    5.7720   11.6490   26.1760 C   0  0  0  0  0  0  0  0  0  0  0  0
    5.9180   10.2810   25.9730 C   0  0  0  0  0  0  0  0  0  0  0  0
    7.0590    9.7870   25.3550 C   0  0  0  0  0  0  0  0  0  0  0  0
 11  9  1  0
 10  9  2  0
  8  9  1  6
  8  6  1  0
  6  5  1  0
  5  4  1  0
  4  3  1  0
  3  2  1  0
  2  1  2  0
 12  2  1  1
 12 16  1  0
 16 15  1  0
 15 14  1  0
 14 21  2  0
 21 20  1  0
 20 19  2  0
 19 17  1  0
 18 17  1  0
 17 13  2  0
 14 13  1  0
 13 12  1  0
  7  3  1  0
  8  7  1  0
M  END
$$$$
