A71EV2A-x5081_A_201_2_A71EV2A-x0911+A+147+1__LIG
     RDKit          3D

 19 20  0  0  0  0  0  0  0  0999 V2000
    9.4350   10.1260   23.5340 Cl  0  0  0  0  0  0  0  0  0  0  0  0
    8.1270   10.5170   24.6100 C   0  0  0  0  0  0  0  0  0  0  0  0
    7.3320    9.5290   24.9540 N   0  0  0  0  0  0  0  0  0  0  0  0
    6.3760    9.8670   25.8220 C   0  0  0  0  0  0  0  0  0  0  0  0
    6.1510   11.0690   26.3500 N   0  0  0  0  0  0  0  0  0  0  0  0
    6.9900   12.0340   25.9570 C   0  0  0  0  0  0  0  0  0  0  0  0
    8.0330   11.8550   25.0720 C   0  0  0  0  0  0  0  0  0  0  0  0
    8.9860   12.9690   24.7220 C   0  0  0  0  0  0  0  0  0  0  0  0
    8.7250   13.5510   23.3450 C   0  0  0  0  0  0  0  0  0  0  0  0
    7.8010   13.1560   22.6460 O   0  0  0  0  0  0  0  0  0  0  0  0
    9.5340   14.5620   22.9580 N   0  0  0  0  0  0  0  0  0  0  0  0
   10.5790   15.1750   23.7980 C   0  0  0  0  0  0  0  0  0  0  0  0
   11.9430   15.0470   23.1410 C   0  0  0  0  0  0  0  0  0  0  0  0
   11.9070   15.5980   21.7050 C   0  0  0  0  0  0  0  0  0  0  0  0
    9.4480   15.1100   21.6030 C   0  0  0  0  0  0  0  0  0  0  0  0
   10.7890   14.9310   20.8860 C   0  0  1  0  0  0  0  0  0  0  0  0
   10.7130   15.4790   19.4710 C   0  0  0  0  0  0  0  0  0  0  0  0
   10.3440   16.6390   19.2510 O   0  0  0  0  0  0  0  0  0  0  0  0
   11.0250   14.6240   18.5070 N   0  0  0  0  0  0  0  0  0  0  0  0
 19 17  1  0
 18 17  2  0
 16 17  1  6
 16 14  1  0
 14 13  1  0
 13 12  1  0
 12 11  1  0
 11  9  1  0
 10  9  2  0
  9  8  1  0
  8  7  1  0
  7  6  2  0
  6  5  1  0
  5  4  2  0
  4  3  1  0
  3  2  2  0
  7  2  1  0
  2  1  1  0
 15 11  1  0
 16 15  1  0
M  END
$$$$
