A71EV2A-x1445_B_301_1_A71EV2A-x0911+A+147+1__LIG
     RDKit          3D

 18 18  0  0  0  0  0  0  0  0999 V2000
    3.9510   13.0020   19.6020 F   0  0  0  0  0  0  0  0  0  0  0  0
    3.0520   12.2250   18.9920 C   0  0  0  0  0  0  0  0  0  0  0  0
    3.3940   10.9690   19.2660 F   0  0  0  0  0  0  0  0  0  0  0  0
    3.2350   12.3960   17.6780 F   0  0  0  0  0  0  0  0  0  0  0  0
    1.6360   12.5100   19.4240 C   0  0  2  0  0  0  0  0  0  0  0  0
    0.6590   12.0220   18.3580 C   0  0  0  0  0  0  0  0  0  0  0  0
    1.4130   14.0100   19.6230 C   0  0  0  0  0  0  0  0  0  0  0  0
    2.2420   14.6490   20.7150 C   0  0  0  0  0  0  0  0  0  0  0  0
    3.0640   15.5180   20.4610 O   0  0  0  0  0  0  0  0  0  0  0  0
    2.0220   14.1880   21.9890 N   0  0  0  0  0  0  0  0  0  0  0  0
    2.6590   14.7090   23.1160 C   0  0  0  0  0  0  0  0  0  0  0  0
    2.1690   15.2440   24.2750 C   0  0  0  0  0  0  0  0  0  0  0  0
    4.0060   14.8970   23.1290 N   0  0  0  0  0  0  0  0  0  0  0  0
    5.0070   14.4600   22.1650 C   0  0  0  0  0  0  0  0  0  0  0  0
    4.4020   15.5720   24.2520 N   0  0  0  0  0  0  0  0  0  0  0  0
    3.2610   15.7930   24.9690 C   0  0  0  0  0  0  0  0  0  0  0  0
    3.1690   16.4760   26.1250 O   0  0  0  0  0  0  0  0  0  0  0  0
    4.0760   16.1140   27.1940 C   0  0  0  0  0  0  0  0  0  0  0  0
 18 17  1  0
 17 16  1  0
 16 12  1  0
 12 11  2  0
 11 10  1  0
 10  8  1  0
  9  8  2  0
  8  7  1  0
  7  5  1  0
  5  6  1  6
  5  2  1  0
  3  2  1  0
  4  2  1  0
  2  1  1  0
 13 11  1  0
 14 13  1  0
 15 13  1  0
 16 15  2  0
M  END
$$$$
