XX01ZVNS2B-x3815_B_203_1_XX01ZVNS2B-x4590+B+203+1__LIG
     RDKit          3D

 24 27  0  0  0  0  0  0  0  0999 V2000
  -10.5060    4.1380  -17.6860 F   0  0  0  0  0  0  0  0  0  0  0  0
   -9.2310    4.2230  -17.2230 C   0  0  0  0  0  0  0  0  0  0  0  0
   -9.0290    4.2840  -15.8610 C   0  0  0  0  0  0  0  0  0  0  0  0
   -8.2270    4.3300  -18.1450 C   0  0  0  0  0  0  0  0  0  0  0  0
   -6.9440    4.5400  -17.6650 C   0  0  0  0  0  0  0  0  0  0  0  0
   -6.6620    4.6380  -16.2870 C   0  0  0  0  0  0  0  0  0  0  0  0
   -5.2670    4.8750  -16.2340 C   0  0  0  0  0  0  0  0  0  0  0  0
   -4.7350    4.9150  -17.4400 N   0  0  0  0  0  0  0  0  0  0  0  0
   -5.7640    4.7090  -18.3130 N   0  0  0  0  0  0  0  0  0  0  0  0
   -7.7330    4.5010  -15.3810 C   0  0  0  0  0  0  0  0  0  0  0  0
   -7.5420    4.6240  -13.8920 C   0  0  0  0  0  0  0  0  0  0  0  0
   -6.5340    5.1450  -13.4200 O   0  0  0  0  0  0  0  0  0  0  0  0
   -8.5510    4.1500  -13.1170 N   0  0  0  0  0  0  0  0  0  0  0  0
   -8.6240    4.1340  -11.6960 C   0  0  0  0  0  0  0  0  0  0  0  0
   -8.5550    5.3330  -10.9590 C   0  0  0  0  0  0  0  0  0  0  0  0
   -8.5180    6.8820  -11.8110 S   0  0  0  0  0  0  0  0  0  0  0  0
   -8.9490    8.0700  -10.5380 C   0  0  0  0  0  0  0  0  0  0  0  0
   -8.7680    2.9200  -11.0180 C   0  0  0  0  0  0  0  0  0  0  0  0
   -8.8380    2.9010   -9.6270 C   0  0  0  0  0  0  0  0  0  0  0  0
   -8.9890    1.7350   -8.6960 C   0  0  0  0  0  0  0  0  0  0  0  0
   -8.8140    2.3550   -7.3800 N   0  0  0  0  0  0  0  0  0  0  0  0
   -8.8400    3.8160   -7.4350 C   0  0  0  0  0  0  0  0  0  0  0  0
   -8.7400    4.0840   -8.9080 C   0  0  0  0  0  0  0  0  0  0  0  0
   -8.5880    5.2980   -9.5690 C   0  0  0  0  0  0  0  0  0  0  0  0
 17 16  1  0
 16 15  1  0
 15 24  2  0
 24 23  1  0
 23 19  2  0
 19 18  1  0
 18 14  2  0
 15 14  1  0
 14 13  1  0
 13 11  1  0
 12 11  2  0
 11 10  1  0
 10  3  1  0
  3  2  2  0
  2  1  1  0
  4  2  1  0
  5  4  2  0
  5  9  1  0
  9  8  1  0
  8  7  2  0
  7  6  1  0
 10  6  2  0
  6  5  1  0
 20 19  1  0
 21 20  1  0
 22 21  1  0
 23 22  1  0
M  END
$$$$
