XX01ZVNS2B-x4963_B_203_5_XX01ZVNS2B-x4590+B+203+1__LIG
     RDKit          3D

 22 25  0  0  0  0  0  0  0  0999 V2000
  -10.2480    3.9490  -18.0250 Cl  0  0  0  0  0  0  0  0  0  0  0  0
   -8.7460    4.2410  -17.1900 C   0  0  0  0  0  0  0  0  0  0  0  0
   -8.7300    4.2200  -15.8010 C   0  0  0  0  0  0  0  0  0  0  0  0
   -7.6140    4.5100  -17.9380 C   0  0  0  0  0  0  0  0  0  0  0  0
   -6.4350    4.7730  -17.2550 C   0  0  0  0  0  0  0  0  0  0  0  0
   -6.3780    4.7450  -15.8590 C   0  0  0  0  0  0  0  0  0  0  0  0
   -5.0720    4.9400  -15.4290 N   0  0  0  0  0  0  0  0  0  0  0  0
   -4.3890    5.0830  -16.5500 C   0  0  0  0  0  0  0  0  0  0  0  0
   -5.1450    4.9890  -17.6690 N   0  0  0  0  0  0  0  0  0  0  0  0
   -7.5370    4.4800  -15.1140 C   0  0  0  0  0  0  0  0  0  0  0  0
   -7.4560    4.5800  -13.6140 C   0  0  0  0  0  0  0  0  0  0  0  0
   -6.5750    5.2590  -13.0920 O   0  0  0  0  0  0  0  0  0  0  0  0
   -8.3830    3.9030  -12.8870 N   0  0  0  0  0  0  0  0  0  0  0  0
   -8.4920    3.9080  -11.4670 C   0  0  0  0  0  0  0  0  0  0  0  0
   -8.7260    2.7350  -10.7520 C   0  0  0  0  0  0  0  0  0  0  0  0
   -8.8070    2.7620   -9.3590 C   0  0  0  0  0  0  0  0  0  0  0  0
   -9.0240    1.6400   -8.3850 C   0  0  0  0  0  0  0  0  0  0  0  0
   -8.8800    2.2900   -7.0910 N   0  0  0  0  0  0  0  0  0  0  0  0
   -8.7870    3.7480   -7.2000 C   0  0  0  0  0  0  0  0  0  0  0  0
   -8.6540    3.9620   -8.6810 C   0  0  0  0  0  0  0  0  0  0  0  0
   -8.4130    5.1310   -9.3910 C   0  0  0  0  0  0  0  0  0  0  0  0
   -8.3330    5.1080  -10.7750 C   0  0  0  0  0  0  0  0  0  0  0  0
 12 11  2  0
 13 11  1  0
 14 13  1  0
 14 22  2  0
 22 21  1  0
 21 20  2  0
 20 16  1  0
 16 15  2  0
 15 14  1  0
 17 16  1  0
 18 17  1  0
 19 18  1  0
 20 19  1  0
 11 10  1  0
 10  3  1  0
  3  2  2  0
  2  1  1  0
  4  2  1  0
  5  4  2  0
  5  9  1  0
  9  8  1  0
  8  7  2  0
  7  6  1  0
 10  6  2  0
  6  5  1  0
M  END
$$$$
