XX01ZVNS2B-x5227_B_203_6_XX01ZVNS2B-x4590+B+203+1__LIG
     RDKit          3D

 23 26  0  0  0  0  0  0  0  0999 V2000
   -9.6040    3.6650  -18.2060 Br  0  0  0  0  0  0  0  0  0  0  0  0
   -8.1610    4.2050  -17.0870 C   0  0  0  0  0  0  0  0  0  0  0  0
   -6.9430    4.5090  -17.6620 C   0  0  0  0  0  0  0  0  0  0  0  0
   -5.8660    4.8600  -16.8370 C   0  0  0  0  0  0  0  0  0  0  0  0
   -4.6600    5.0510  -17.5310 N   0  0  0  0  0  0  0  0  0  0  0  0
   -6.4560    4.4220  -19.3180 S   0  0  0  0  0  0  0  0  0  0  0  0
   -4.8230    4.8430  -18.8150 C   0  0  0  0  0  0  0  0  0  0  0  0
   -3.8270    4.8710  -19.7170 N   0  0  0  0  0  0  0  0  0  0  0  0
   -8.3460    4.2460  -15.7090 C   0  0  0  0  0  0  0  0  0  0  0  0
   -7.2790    4.6110  -14.8870 C   0  0  0  0  0  0  0  0  0  0  0  0
   -6.0370    4.9130  -15.4470 C   0  0  0  0  0  0  0  0  0  0  0  0
   -7.3570    4.7930  -13.3990 C   0  0  0  0  0  0  0  0  0  0  0  0
   -6.5800    5.5520  -12.8220 O   0  0  0  0  0  0  0  0  0  0  0  0
   -8.2770    4.0430  -12.7420 N   0  0  0  0  0  0  0  0  0  0  0  0
   -8.4790    4.0190  -11.3270 C   0  0  0  0  0  0  0  0  0  0  0  0
   -8.6510    2.7990  -10.6780 C   0  0  0  0  0  0  0  0  0  0  0  0
   -8.7340    2.7500   -9.2830 C   0  0  0  0  0  0  0  0  0  0  0  0
   -9.0150    1.5830   -8.3800 C   0  0  0  0  0  0  0  0  0  0  0  0
   -8.8040    2.1580   -7.0380 N   0  0  0  0  0  0  0  0  0  0  0  0
   -8.7540    3.6230   -7.0730 C   0  0  0  0  0  0  0  0  0  0  0  0
   -8.6330    3.9210   -8.5400 C   0  0  0  0  0  0  0  0  0  0  0  0
   -8.4680    5.1410   -9.1870 C   0  0  0  0  0  0  0  0  0  0  0  0
   -8.4040    5.1930  -10.5740 C   0  0  0  0  0  0  0  0  0  0  0  0
  8  7  1  0
  7  5  2  0
  5  4  1  0
  4 11  1  0
 11 10  2  0
 12 10  1  0
 13 12  2  0
 14 12  1  0
 15 14  1  0
 15 23  2  0
 23 22  1  0
 22 21  2  0
 21 17  1  0
 17 16  2  0
 16 15  1  0
 18 17  1  0
 19 18  1  0
 20 19  1  0
 21 20  1  0
 10  9  1  0
  9  2  2  0
  2  1  1  0
  3  2  1  0
  4  3  2  0
  6  3  1  0
  7  6  1  0
M  END
$$$$
