A71EV2A-x4254_A_201_1_A71EV2A-x0911+A+147+1__LIG
     RDKit          3D

 20 22  0  0  0  0  0  0  0  0999 V2000
    9.2780    9.9440   23.5970 Cl  0  0  0  0  0  0  0  0  0  0  0  0
    8.1260   10.6180   24.7030 C   0  0  0  0  0  0  0  0  0  0  0  0
    7.1960    9.7690   25.2840 C   0  0  0  0  0  0  0  0  0  0  0  0
    6.2860   10.2830   26.2020 C   0  0  0  0  0  0  0  0  0  0  0  0
    6.3100   11.6330   26.5150 C   0  0  0  0  0  0  0  0  0  0  0  0
    8.1630   11.9800   24.9960 C   0  0  0  0  0  0  0  0  0  0  0  0
    7.2390   12.4700   25.9010 C   0  0  0  0  0  0  0  0  0  0  0  0
    7.7050   13.9110   25.7450 C   0  0  0  0  0  0  0  0  0  0  0  0
    8.7930   13.3460   24.7670 C   0  0  2  0  0  0  0  0  0  0  0  0
    8.6700   13.7480   23.2970 C   0  0  0  0  0  0  0  0  0  0  0  0
    7.8390   13.2100   22.5840 O   0  0  0  0  0  0  0  0  0  0  0  0
    9.4840   14.7220   22.8280 N   0  0  0  0  0  0  0  0  0  0  0  0
   10.3960   15.5240   23.6650 C   0  0  0  0  0  0  0  0  0  0  0  0
   11.7970   15.5660   23.0780 C   0  0  0  0  0  0  0  0  0  0  0  0
   11.7580   16.0170   21.6170 C   0  0  0  0  0  0  0  0  0  0  0  0
    9.4210   15.1390   21.4220 C   0  0  0  0  0  0  0  0  0  0  0  0
   10.8130   15.1410   20.7850 C   0  0  1  0  0  0  0  0  0  0  0  0
   10.8000   15.5540   19.3220 C   0  0  0  0  0  0  0  0  0  0  0  0
   10.3970   16.6690   18.9730 O   0  0  0  0  0  0  0  0  0  0  0  0
   11.2440   14.6520   18.4660 N   0  0  0  0  0  0  0  0  0  0  0  0
 20 18  1  0
 19 18  2  0
 17 18  1  6
 17 15  1  0
 15 14  1  0
 14 13  1  0
 13 12  1  0
 12 10  1  0
 11 10  2  0
  9 10  1  6
  9  8  1  0
  8  7  1  0
  7  5  1  0
  5  4  2  0
  4  3  1  0
  3  2  2  0
  2  1  1  0
  6  2  1  0
  7  6  2  0
  9  6  1  0
 16 12  1  0
 17 16  1  0
M  END
$$$$
