A71EV2A-x4708_A_201_1_A71EV2A-x0911+A+147+1__LIG
     RDKit          3D

 18 19  0  0  0  0  0  0  0  0999 V2000
    7.2080   13.0710   22.5060 O   0  0  0  0  0  0  0  0  0  0  0  0
    8.0330   13.5230   23.2720 C   0  0  0  0  0  0  0  0  0  0  0  0
    8.9540   14.3980   22.8250 N   0  0  0  0  0  0  0  0  0  0  0  0
    9.9710   15.0090   23.6980 C   0  0  0  0  0  0  0  0  0  0  0  0
   11.3660   14.9000   23.0990 C   0  0  0  0  0  0  0  0  0  0  0  0
   11.3830   15.4540   21.6780 C   0  0  0  0  0  0  0  0  0  0  0  0
    8.9480   14.8960   21.4450 C   0  0  0  0  0  0  0  0  0  0  0  0
   10.3310   14.7430   20.8090 C   0  0  1  0  0  0  0  0  0  0  0  0
   10.3940   15.2170   19.3670 C   0  0  0  0  0  0  0  0  0  0  0  0
    9.9150   16.3040   19.0360 O   0  0  0  0  0  0  0  0  0  0  0  0
   11.0010   14.4060   18.5140 N   0  0  0  0  0  0  0  0  0  0  0  0
    7.8290   13.1380   24.7590 C   0  0  0  0  0  0  0  0  0  0  0  0
    9.0830   13.1050   25.4370 O   0  0  0  0  0  0  0  0  0  0  0  0
    7.2320   11.7300   24.8780 C   0  0  0  0  0  0  0  0  0  0  0  0
    6.9230   11.2690   26.2930 C   0  0  0  0  0  0  0  0  0  0  0  0
    5.7220   12.3370   27.1240 S   0  0  0  0  0  0  0  0  0  0  0  0
    6.5910   13.9040   26.8870 C   0  0  0  0  0  0  0  0  0  0  0  0
    6.9180   14.1750   25.4270 C   0  0  0  0  0  0  0  0  0  0  0  0
 11  9  1  0
 10  9  2  0
  8  9  1  6
  8  6  1  0
  6  5  1  0
  5  4  1  0
  4  3  1  0
  3  2  1  0
  2  1  2  0
 12  2  1  0
 13 12  1  0
 12 18  1  0
 18 17  1  0
 17 16  1  0
 16 15  1  0
 15 14  1  0
 14 12  1  0
  7  3  1  0
  8  7  1  0
M  END
$$$$
