XX01ZVNS2B-x1727_B_301_2_XX01ZVNS2B-x4590+B+203+1__LIG
     RDKit          3D

 25 26  0  0  0  0  0  0  0  0999 V2000
  -10.4750    7.6090  -13.6440 C   0  0  0  0  0  0  0  0  0  0  0  0
   -9.1180    7.7290  -13.0280 C   0  0  0  0  0  0  0  0  0  0  0  0
   -8.3470    8.6310  -13.3420 O   0  0  0  0  0  0  0  0  0  0  0  0
   -8.8210    6.8460  -12.0710 N   0  0  0  0  0  0  0  0  0  0  0  0
   -7.5600    6.1210  -11.9880 C   0  0  1  0  0  0  0  0  0  0  0  0
   -7.8100    4.6130  -12.0250 C   0  0  0  0  0  0  0  0  0  0  0  0
   -8.5920    4.0780  -10.8310 C   0  0  0  0  0  0  0  0  0  0  0  0
   -7.7360    3.3890   -9.7870 C   0  0  0  0  0  0  0  0  0  0  0  0
   -8.4050    3.3010   -8.4320 C   0  0  0  0  0  0  0  0  0  0  0  0
   -8.8130    1.9140   -8.1030 N   0  0  0  0  0  0  0  0  0  0  0  0
   -6.5360    6.5400  -13.0620 C   0  0  0  0  0  0  0  0  0  0  0  0
   -5.5720    7.2280  -12.7590 O   0  0  0  0  0  0  0  0  0  0  0  0
   -6.7700    6.0870  -14.3140 N   0  0  0  0  0  0  0  0  0  0  0  0
   -5.8950    6.0920  -15.4140 C   0  0  0  0  0  0  0  0  0  0  0  0
   -4.6100    6.5870  -15.4070 C   0  0  0  0  0  0  0  0  0  0  0  0
   -3.8170    6.5490  -16.5650 C   0  0  0  0  0  0  0  0  0  0  0  0
   -4.3010    6.0320  -17.7260 C   0  0  0  0  0  0  0  0  0  0  0  0
   -5.6200    5.5220  -17.7890 C   0  0  0  0  0  0  0  0  0  0  0  0
   -6.2020    4.9670  -18.9590 C   0  0  0  0  0  0  0  0  0  0  0  0
   -7.4760    4.4940  -18.9340 C   0  0  0  0  0  0  0  0  0  0  0  0
   -8.2180    4.5600  -17.7340 C   0  0  0  0  0  0  0  0  0  0  0  0
   -7.7120    5.0690  -16.6210 N   0  0  0  0  0  0  0  0  0  0  0  0
   -6.4340    5.5490  -16.6250 C   0  0  0  0  0  0  0  0  0  0  0  0
   -9.6250    4.0420  -17.6880 C   0  0  0  0  0  0  0  0  0  0  0  0
   -5.2900    4.8860  -20.4390 Cl  0  0  0  0  0  0  0  0  0  0  0  0
  1  2  1  0
  2  3  2  0
  2  4  1  0
  4  5  1  0
  5  6  1  6
  6  7  1  0
  7  8  1  0
  8  9  1  0
  9 10  1  0
  5 11  1  0
 11 12  2  0
 11 13  1  0
 13 14  1  0
 14 15  2  0
 15 16  1  0
 16 17  2  0
 17 18  1  0
 18 19  2  0
 19 20  1  0
 20 21  2  0
 21 22  1  0
 22 23  2  0
 21 24  1  0
 19 25  1  0
 14 23  1  0
 18 23  1  0
M  CHG  1  10   1
M  END
$$$$
