A71EV2A-x4544_A_201_1_A71EV2A-x0911+A+147+1__LIG
     RDKit          3D

 23 24  0  0  0  0  0  0  0  0999 V2000
   10.3400   16.9390   19.1580 O   0  0  0  0  0  0  0  0  0  0  0  0
   10.6690   15.7790   19.4210 C   0  0  0  0  0  0  0  0  0  0  0  0
   10.9510   14.8790   18.4940 N   0  0  0  0  0  0  0  0  0  0  0  0
   10.7560   15.2940   20.8570 C   0  0  1  0  0  0  0  0  0  0  0  0
   11.9570   15.9140   21.5890 C   0  0  0  0  0  0  0  0  0  0  0  0
   12.0250   15.4790   23.0620 C   0  0  0  0  0  0  0  0  0  0  0  0
   10.6990   15.7080   23.7670 C   0  0  0  0  0  0  0  0  0  0  0  0
    9.4950   15.6760   21.6360 C   0  0  0  0  0  0  0  0  0  0  0  0
    9.5950   15.1290   22.9910 N   0  0  0  0  0  0  0  0  0  0  0  0
    8.7600   14.1560   23.4030 C   0  0  0  0  0  0  0  0  0  0  0  0
    7.9630   13.6220   22.6470 O   0  0  0  0  0  0  0  0  0  0  0  0
    8.8600   13.7290   24.8540 C   0  0  0  0  0  0  0  0  0  0  0  0
    8.3170   12.3270   25.0070 C   0  0  0  0  0  0  0  0  0  0  0  0
    7.0640   12.0110   25.5500 C   0  0  0  0  0  0  0  0  0  0  0  0
    5.9350   13.2270   26.1680 S   0  0  0  0  0  0  0  0  0  0  0  0
    4.8110   12.5240   26.7190 O   0  0  0  0  0  0  0  0  0  0  0  0
    6.6580   14.1220   27.0290 O   0  0  0  0  0  0  0  0  0  0  0  0
    5.3830   14.1360   24.7730 C   0  0  0  0  0  0  0  0  0  0  0  0
    9.0510   11.2880   24.4400 C   0  0  0  0  0  0  0  0  0  0  0  0
    8.5280   10.0190   24.3890 C   0  0  0  0  0  0  0  0  0  0  0  0
    9.4710    8.6830   23.4280 Br  0  0  0  0  0  0  0  0  0  0  0  0
    7.3140    9.7100   24.9480 C   0  0  0  0  0  0  0  0  0  0  0  0
    6.5830   10.7110   25.5550 C   0  0  0  0  0  0  0  0  0  0  0  0
 18 15  1  0
 16 15  2  0
 17 15  2  0
 15 14  1  0
 14 23  2  0
 23 22  1  0
 22 20  2  0
 21 20  1  0
 20 19  1  0
 19 13  2  0
 14 13  1  0
 13 12  1  0
 12 10  1  0
 11 10  2  0
 10  9  1  0
  9  7  1  0
  7  6  1  0
  6  5  1  0
  5  4  1  0
  4  2  1  6
  3  2  1  0
  2  1  2  0
  8  4  1  0
  9  8  1  0
M  END
$$$$
