XX01ZVNS2B-x3858_B_203_1_XX01ZVNS2B-x4590+B+203+1__LIG
     RDKit          3D

 24 27  0  0  0  0  0  0  0  0999 V2000
   -6.7120    5.4410  -13.8770 O   0  0  0  0  0  0  0  0  0  0  0  0
   -7.6830    4.7760  -14.2340 C   0  0  0  0  0  0  0  0  0  0  0  0
   -7.9830    4.5530  -15.6910 C   0  0  0  0  0  0  0  0  0  0  0  0
   -7.0120    4.7500  -16.6830 C   0  0  0  0  0  0  0  0  0  0  0  0
   -5.5640    5.1220  -16.5990 C   0  0  0  0  0  0  0  0  0  0  0  0
   -9.2530    4.1320  -16.0820 C   0  0  0  0  0  0  0  0  0  0  0  0
   -9.5520    3.9190  -17.4220 C   0  0  0  0  0  0  0  0  0  0  0  0
   -8.5960    4.1190  -18.4070 C   0  0  0  0  0  0  0  0  0  0  0  0
   -7.3280    4.5380  -18.0210 C   0  0  0  0  0  0  0  0  0  0  0  0
   -6.2060    4.7920  -18.8060 N   0  0  0  0  0  0  0  0  0  0  0  0
   -5.1230    5.1140  -18.0470 C   0  0  0  0  0  0  0  0  0  0  0  0
   -3.9910    5.3280  -18.4760 O   0  0  0  0  0  0  0  0  0  0  0  0
   -8.5460    4.2100  -13.3570 N   0  0  0  0  0  0  0  0  0  0  0  0
   -8.4920    4.2980  -11.9420 C   0  0  0  0  0  0  0  0  0  0  0  0
   -8.7970    3.1950  -11.1530 C   0  0  0  0  0  0  0  0  0  0  0  0
   -8.8420    3.3010   -9.7660 C   0  0  0  0  0  0  0  0  0  0  0  0
   -9.2230    2.1110   -8.9500 C   0  0  0  0  0  0  0  0  0  0  0  0
   -8.1120    1.8550   -8.0390 N   0  0  0  0  0  0  0  0  0  0  0  0
   -8.2480    2.5850   -6.7670 C   0  0  0  0  0  0  0  0  0  0  0  0
   -7.8000    4.0100   -6.9620 C   0  0  0  0  0  0  0  0  0  0  0  0
   -8.6830    4.7490   -7.8270 O   0  0  0  0  0  0  0  0  0  0  0  0
   -8.5470    4.5370   -9.1860 C   0  0  0  0  0  0  0  0  0  0  0  0
   -8.2080    5.6320   -9.9630 C   0  0  0  0  0  0  0  0  0  0  0  0
   -8.1910    5.5130  -11.3400 C   0  0  0  0  0  0  0  0  0  0  0  0
 12 11  2  0
 11  5  1  0
  5  4  1  0
  4  9  2  0
  9  8  1  0
  8  7  2  0
  7  6  1  0
  6  3  2  0
  4  3  1  0
  3  2  1  0
  2  1  2  0
 13  2  1  0
 14 13  1  0
 14 24  2  0
 24 23  1  0
 23 22  2  0
 22 16  1  0
 16 15  2  0
 15 14  1  0
 17 16  1  0
 18 17  1  0
 19 18  1  0
 20 19  1  0
 21 20  1  0
 22 21  1  0
 10  9  1  0
 11 10  1  0
M  END
$$$$
