XX01ZVNS2B-x3527_B_203_1_XX01ZVNS2B-x4590+B+203+1__LIG
     RDKit          3D

 22 25  0  0  0  0  0  0  0  0999 V2000
   -6.5820    5.8170  -12.4390 O   0  0  0  0  0  0  0  0  0  0  0  0
   -7.3050    5.0360  -13.0520 C   0  0  0  0  0  0  0  0  0  0  0  0
   -8.1860    4.2040  -12.4520 N   0  0  0  0  0  0  0  0  0  0  0  0
   -8.4120    4.0870  -11.0620 C   0  0  0  0  0  0  0  0  0  0  0  0
   -8.2390    5.1990  -10.2390 C   0  0  0  0  0  0  0  0  0  0  0  0
   -8.4020    5.0830   -8.8710 C   0  0  0  0  0  0  0  0  0  0  0  0
   -8.6630    3.8290   -8.3330 C   0  0  0  0  0  0  0  0  0  0  0  0
   -8.8200    2.7180   -9.1480 C   0  0  0  0  0  0  0  0  0  0  0  0
   -8.6660    2.8200  -10.5220 C   0  0  0  0  0  0  0  0  0  0  0  0
   -9.1670    1.5320   -8.3000 C   0  0  0  0  0  0  0  0  0  0  0  0
   -8.6940    1.9790   -6.9820 N   0  0  0  0  0  0  0  0  0  0  0  0
   -8.9140    3.4300   -6.9080 C   0  0  0  0  0  0  0  0  0  0  0  0
   -7.1640    4.8830  -14.5350 C   0  0  0  0  0  0  0  0  0  0  0  0
   -5.9580    5.2690  -15.1770 C   0  0  0  0  0  0  0  0  0  0  0  0
   -5.8350    5.2000  -16.5340 C   0  0  0  0  0  0  0  0  0  0  0  0
   -6.9140    4.7530  -17.3240 C   0  0  0  0  0  0  0  0  0  0  0  0
   -6.7310    4.6420  -18.6750 N   0  0  0  0  0  0  0  0  0  0  0  0
   -7.7420    4.1660  -19.3770 C   0  0  0  0  0  0  0  0  0  0  0  0
   -9.0090    3.8640  -18.8500 C   0  0  0  0  0  0  0  0  0  0  0  0
   -9.1840    3.9160  -17.5080 C   0  0  0  0  0  0  0  0  0  0  0  0
   -8.1270    4.3830  -16.7000 C   0  0  0  0  0  0  0  0  0  0  0  0
   -8.2370    4.4800  -15.2940 C   0  0  0  0  0  0  0  0  0  0  0  0
  1  2  2  0
  2  3  1  0
  3  4  1  0
  4  5  2  0
  5  6  1  0
  6  7  2  0
  7  8  1  0
  8  9  2  0
  8 10  1  0
 10 11  1  0
 11 12  1  0
  2 13  1  0
 13 14  2  0
 14 15  1  0
 15 16  2  0
 16 17  1  0
 17 18  2  0
 18 19  1  0
 19 20  2  0
 20 21  1  0
 21 22  2  0
  4  9  1  0
 13 22  1  0
  7 12  1  0
 16 21  1  0
M  END
$$$$
