A71EV2A-x4409_A_201_1_A71EV2A-x0911+A+147+1__LIG
     RDKit          3D

 21 23  0  0  0  0  0  0  0  0999 V2000
   11.1340   14.1280   24.9080 O   0  0  0  0  0  0  0  0  0  0  0  0
   10.9950   14.4430   23.7380 C   0  0  0  0  0  0  0  0  0  0  0  0
   12.1980   14.8860   22.9470 C   0  0  0  0  0  0  0  0  0  0  0  0
   11.8780   15.5330   21.6060 C   0  0  0  0  0  0  0  0  0  0  0  0
    9.7840   14.4300   23.1110 N   0  0  0  0  0  0  0  0  0  0  0  0
    9.5290   14.7850   21.7070 C   0  0  0  0  0  0  0  0  0  0  0  0
   10.8110   14.7160   20.8690 C   0  0  1  0  0  0  0  0  0  0  0  0
   10.6380   15.2120   19.4450 C   0  0  0  0  0  0  0  0  0  0  0  0
   10.0650   16.2800   19.2080 O   0  0  0  0  0  0  0  0  0  0  0  0
   11.1870   14.4580   18.4970 N   0  0  0  0  0  0  0  0  0  0  0  0
    8.5780   14.1390   23.8910 C   0  0  0  0  0  0  0  0  0  0  0  0
    8.2670   12.6500   24.0920 C   0  0  2  0  0  0  0  0  0  0  0  0
    7.8000   12.4370   25.5180 C   0  0  0  0  0  0  0  0  0  0  0  0
    7.2110   13.4310   26.2960 C   0  0  0  0  0  0  0  0  0  0  0  0
    6.1520   13.1440   27.1410 C   0  0  0  0  0  0  0  0  0  0  0  0
    5.6670   11.8630   27.2280 C   0  0  0  0  0  0  0  0  0  0  0  0
    6.2340   10.8540   26.4680 C   0  0  0  0  0  0  0  0  0  0  0  0
    7.2870   11.1470   25.6130 C   0  0  0  0  0  0  0  0  0  0  0  0
    7.7160   10.1160   24.8110 O   0  0  0  0  0  0  0  0  0  0  0  0
    9.0270   10.2670   24.1940 C   0  0  0  0  0  0  0  0  0  0  0  0
    9.3780   11.6630   23.7210 C   0  0  0  0  0  0  0  0  0  0  0  0
 10  8  1  0
  9  8  2  0
  7  8  1  6
  7  4  1  0
  4  3  1  0
  3  2  1  0
  2  1  2  0
  5  2  1  0
 11  5  1  0
 12 11  1  1
 12 21  1  0
 21 20  1  0
 20 19  1  0
 19 18  1  0
 18 17  1  0
 17 16  2  0
 16 15  1  0
 15 14  2  0
 14 13  1  0
 18 13  2  0
 13 12  1  0
  6  5  1  0
  7  6  1  0
M  END
$$$$
