A71EV2A-x0853_A_147_1_A71EV2A-x0911+A+147+1__LIG
     RDKit          3D

 15 17  0  0  0  0  0  0  0  0999 V2000
   -0.5200   12.4570   21.6190 O   0  0  0  0  0  0  0  0  0  0  0  0
    0.2240   13.2410   21.0430 C   0  0  0  0  0  0  0  0  0  0  0  0
    1.1310   13.9790   21.6900 N   0  0  0  0  0  0  0  0  0  0  0  0
    0.9360   15.4050   21.9410 C   0  0  0  0  0  0  0  0  0  0  0  0
    0.4640   15.8250   23.2840 C   0  0  0  0  0  0  0  0  0  0  0  0
   -0.4430   15.9240   22.1100 C   0  0  0  0  0  0  0  0  0  0  0  0
    0.1410   13.4340   19.5660 C   0  0  0  0  0  0  0  0  0  0  0  0
    0.7340   12.5090   18.7100 C   0  0  0  0  0  0  0  0  0  0  0  0
    0.6350   12.7190   17.3570 C   0  0  0  0  0  0  0  0  0  0  0  0
    1.0520   11.9040   16.3290 O   0  0  0  0  0  0  0  0  0  0  0  0
    0.4170   12.4460   15.1690 C   0  0  0  0  0  0  0  0  0  0  0  0
    0.0490   13.7890   15.4760 O   0  0  0  0  0  0  0  0  0  0  0  0
   -0.0080   13.8190   16.8480 C   0  0  0  0  0  0  0  0  0  0  0  0
   -0.6060   14.7500   17.6720 C   0  0  0  0  0  0  0  0  0  0  0  0
   -0.5290   14.5450   19.0390 C   0  0  0  0  0  0  0  0  0  0  0  0
  2  1  2  0
  3  2  1  0
  4  3  1  0
  4  6  1  0
  6  5  1  0
  5  4  1  0
  7  2  1  0
  7 15  2  0
 15 14  1  0
 14 13  2  0
 13 12  1  0
 12 11  1  0
 11 10  1  0
 10  9  1  0
 13  9  1  0
  9  8  2  0
  8  7  1  0
M  END
$$$$
