A71EV2A-x4669_C_201_1_A71EV2A-x0911+A+147+1__LIG
     RDKit          3D

 23 25  0  0  0  0  0  0  0  0999 V2000
    9.3240   10.2240   24.2030 Cl  0  0  0  0  0  0  0  0  0  0  0  0
    8.1850   11.0160   25.2480 C   0  0  0  0  0  0  0  0  0  0  0  0
    7.2220   10.2400   25.8670 C   0  0  0  0  0  0  0  0  0  0  0  0
    6.2910   10.8540   26.6800 C   0  0  0  0  0  0  0  0  0  0  0  0
    5.3540   10.0620   27.3030 O   0  0  0  0  0  0  0  0  0  0  0  0
    4.5740   10.7250   28.3290 C   0  0  0  0  0  0  0  0  0  0  0  0
    4.2210   12.1560   27.9610 C   0  0  0  0  0  0  0  0  0  0  0  0
    5.4090   12.9160   27.6280 O   0  0  0  0  0  0  0  0  0  0  0  0
    6.3260   12.2480   26.8550 C   0  0  0  0  0  0  0  0  0  0  0  0
    7.3010   12.9940   26.2330 C   0  0  0  0  0  0  0  0  0  0  0  0
    8.2610   12.3920   25.4270 C   0  0  0  0  0  0  0  0  0  0  0  0
    9.3600   13.2340   24.8220 C   0  0  0  0  0  0  0  0  0  0  0  0
    8.9820   13.7450   23.4430 C   0  0  0  0  0  0  0  0  0  0  0  0
    8.0280   13.2840   22.8040 O   0  0  0  0  0  0  0  0  0  0  0  0
    9.7690   14.7350   22.9660 N   0  0  0  0  0  0  0  0  0  0  0  0
   10.8430   15.4320   23.6990 C   0  0  0  0  0  0  0  0  0  0  0  0
   12.1830   15.2810   22.9780 C   0  0  0  0  0  0  0  0  0  0  0  0
   12.0600   15.7390   21.5220 C   0  0  0  0  0  0  0  0  0  0  0  0
    9.5980   15.1740   21.5780 C   0  0  0  0  0  0  0  0  0  0  0  0
   10.9110   14.9960   20.8060 C   0  0  1  0  0  0  0  0  0  0  0  0
   10.7410   15.4950   19.3820 C   0  0  0  0  0  0  0  0  0  0  0  0
   10.3360   16.6410   19.1570 O   0  0  0  0  0  0  0  0  0  0  0  0
   10.9900   14.6080   18.4260 N   0  0  0  0  0  0  0  0  0  0  0  0
 23 21  1  0
 22 21  2  0
 20 21  1  6
 20 18  1  0
 18 17  1  0
 17 16  1  0
 16 15  1  0
 15 13  1  0
 14 13  2  0
 13 12  1  0
 12 11  1  0
 11 10  2  0
 10  9  1  0
  9  4  2  0
  4  3  1  0
  3  2  2  0
 11  2  1  0
  2  1  1  0
  5  4  1  0
  6  5  1  0
  7  6  1  0
  8  7  1  0
  9  8  1  0
 19 15  1  0
 20 19  1  0
M  END
$$$$
