XX01ZVNS2B-x0719_B_301_1_XX01ZVNS2B-x4590+B+203+1__LIG
     RDKit          3D

 10 10  0  0  0  0  0  0  0  0999 V2000
   -6.8840    1.8240  -13.6620 O   0  0  0  0  0  0  0  0  0  0  0  0
   -5.9580    2.6160  -13.8320 C   0  0  0  0  0  0  0  0  0  0  0  0
   -4.6280    2.4400  -13.1550 C   0  0  0  0  0  0  0  0  0  0  0  0
   -6.0740    3.6760  -14.6430 N   0  0  0  0  0  0  0  0  0  0  0  0
   -7.3490    4.3400  -14.8410 C   0  0  0  0  0  0  0  0  0  0  0  0
   -7.8410    4.3230  -16.3040 C   0  0  0  0  0  0  0  0  0  0  0  0
   -7.1510    4.8610  -17.3300 N   0  0  0  0  0  0  0  0  0  0  0  0
   -7.9690    4.8520  -18.4230 C   0  0  0  0  0  0  0  0  0  0  0  0
   -9.1340    4.2990  -18.0220 C   0  0  0  0  0  0  0  0  0  0  0  0
   -9.0590    3.9510  -16.6920 N   0  0  0  0  0  0  0  0  0  0  0  0
  3  2  1  0
  2  1  2  0
  4  2  1  0
  5  4  1  0
  6  5  1  0
  6 10  2  0
 10  9  1  0
  9  8  2  0
  8  7  1  0
  7  6  1  0
M  END
$$$$
