A71EV2A-x4310_C_201_1_A71EV2A-x0911+A+147+1__LIG
     RDKit          3D

 24 25  0  0  0  0  0  0  0  0999 V2000
    4.9360   10.4040   28.2670 F   0  0  0  0  0  0  0  0  0  0  0  0
    5.3630   11.5590   27.7610 C   0  0  0  0  0  0  0  0  0  0  0  0
    4.2640   12.1970   27.3240 F   0  0  0  0  0  0  0  0  0  0  0  0
    5.8030   12.2680   28.8150 F   0  0  0  0  0  0  0  0  0  0  0  0
    6.4100   11.3950   26.6890 C   0  0  0  0  0  0  0  0  0  0  0  0
    7.1310   12.4720   26.1420 C   0  0  0  0  0  0  0  0  0  0  0  0
    6.8840   13.7560   26.5940 O   0  0  0  0  0  0  0  0  0  0  0  0
    6.0040   14.5530   25.7890 C   0  0  0  0  0  0  0  0  0  0  0  0
    6.7100   10.1230   26.2200 C   0  0  0  0  0  0  0  0  0  0  0  0
    7.6910    9.9210   25.2570 C   0  0  0  0  0  0  0  0  0  0  0  0
    8.4050   10.9870   24.7300 C   0  0  0  0  0  0  0  0  0  0  0  0
    8.1240   12.2730   25.1730 C   0  0  0  0  0  0  0  0  0  0  0  0
    8.8380   13.3900   24.6780 N   0  0  0  0  0  0  0  0  0  0  0  0
    8.7350   13.7790   23.3750 C   0  0  0  0  0  0  0  0  0  0  0  0
    7.9180   13.2650   22.6050 O   0  0  0  0  0  0  0  0  0  0  0  0
    9.5040   14.8500   23.0080 N   0  0  0  0  0  0  0  0  0  0  0  0
    9.4240   15.3380   21.6290 C   0  0  0  0  0  0  0  0  0  0  0  0
   10.7440   15.0750   20.9020 C   0  0  1  0  0  0  0  0  0  0  0  0
   10.6800   15.5620   19.4660 C   0  0  0  0  0  0  0  0  0  0  0  0
   10.3420   16.7300   19.2070 O   0  0  0  0  0  0  0  0  0  0  0  0
   10.9550   14.6550   18.5290 N   0  0  0  0  0  0  0  0  0  0  0  0
   11.8870   15.7600   21.6780 C   0  0  0  0  0  0  0  0  0  0  0  0
   11.9310   15.2840   23.1320 C   0  0  0  0  0  0  0  0  0  0  0  0
   10.5790   15.4660   23.8120 C   0  0  0  0  0  0  0  0  0  0  0  0
  8  7  1  0
  7  6  1  0
  6 12  2  0
 13 12  1  0
 14 13  1  0
 15 14  2  0
 16 14  1  0
 16 24  1  0
 24 23  1  0
 23 22  1  0
 22 18  1  0
 18 19  1  6
 21 19  1  0
 20 19  2  0
 18 17  1  0
 17 16  1  0
 12 11  1  0
 11 10  2  0
 10  9  1  0
  9  5  2  0
  6  5  1  0
  5  2  1  0
  3  2  1  0
  4  2  1  0
  2  1  1  0
M  END
$$$$
