A71EV2A-x3869_A_201_1_A71EV2A-x0911+A+147+1__LIG
     RDKit          3D

 20 21  0  0  0  0  0  0  0  0999 V2000
   10.2100   16.8620   19.1130 O   0  0  0  0  0  0  0  0  0  0  0  0
   10.6050   15.7930   19.5860 C   0  0  0  0  0  0  0  0  0  0  0  0
   11.0370   14.7890   18.8270 N   0  0  0  0  0  0  0  0  0  0  0  0
   10.6430   15.5710   21.0900 C   0  0  2  0  0  0  0  0  0  0  0  0
   12.0880   15.5590   21.6050 C   0  0  0  0  0  0  0  0  0  0  0  0
   12.1320   15.2810   23.1050 C   0  0  0  0  0  0  0  0  0  0  0  0
   11.4650   13.9500   23.4180 C   0  0  0  0  0  0  0  0  0  0  0  0
    9.9520   14.2490   21.4390 C   0  0  0  0  0  0  0  0  0  0  0  0
   10.1100   13.8550   22.8460 N   0  0  0  0  0  0  0  0  0  0  0  0
    9.0750   13.2410   23.4700 C   0  0  0  0  0  0  0  0  0  0  0  0
    8.0100   13.0190   22.9050 O   0  0  0  0  0  0  0  0  0  0  0  0
    9.3140   12.7440   24.8860 C   0  0  0  0  0  0  0  0  0  0  0  0
    8.3440   11.6450   25.2650 C   0  0  0  0  0  0  0  0  0  0  0  0
    8.3780   10.3390   24.7270 C   0  0  0  0  0  0  0  0  0  0  0  0
    9.3740   10.1210   23.8350 O   0  0  0  0  0  0  0  0  0  0  0  0
    9.5740    8.7890   23.3580 C   0  0  0  0  0  0  0  0  0  0  0  0
    7.3300   11.8970   26.1880 C   0  0  0  0  0  0  0  0  0  0  0  0
    6.4370   10.9030   26.5360 C   0  0  0  0  0  0  0  0  0  0  0  0
    6.5720    9.6700   25.9500 C   0  0  0  0  0  0  0  0  0  0  0  0
    7.5250    9.3750   25.0490 N   0  0  0  0  0  0  0  0  0  0  0  0
 16 15  1  0
 15 14  1  0
 14 20  2  0
 20 19  1  0
 19 18  2  0
 18 17  1  0
 17 13  2  0
 14 13  1  0
 13 12  1  0
 12 10  1  0
 11 10  2  0
 10  9  1  0
  9  7  1  0
  7  6  1  0
  6  5  1  0
  5  4  1  0
  4  2  1  6
  3  2  1  0
  2  1  2  0
  8  4  1  0
  9  8  1  0
M  END
$$$$
