A71EV2A-x5608_C_201_5_A71EV2A-x0911+A+147+1__LIG
     RDKit          3D

 16 17  0  0  0  0  0  0  0  0999 V2000
   11.2450   14.4690   25.0890 O   0  0  0  0  0  0  0  0  0  0  0  0
   11.1650   14.6900   23.8780 C   0  0  0  0  0  0  0  0  0  0  0  0
   12.3440   15.2820   23.1400 C   0  0  0  0  0  0  0  0  0  0  0  0
   12.0680   15.7920   21.7240 C   0  0  0  0  0  0  0  0  0  0  0  0
   10.0330   14.4480   23.1720 N   0  0  0  0  0  0  0  0  0  0  0  0
    9.8030   14.7380   21.7480 C   0  0  0  0  0  0  0  0  0  0  0  0
   11.1270   14.8320   20.9780 C   0  0  1  0  0  0  0  0  0  0  0  0
   10.8390   15.3300   19.5710 C   0  0  0  0  0  0  0  0  0  0  0  0
   10.3870   16.4700   19.3710 O   0  0  0  0  0  0  0  0  0  0  0  0
   11.0560   14.4600   18.6020 N   0  0  0  0  0  0  0  0  0  0  0  0
    8.8930   13.8460   23.8580 C   0  0  0  0  0  0  0  0  0  0  0  0
    8.9600   12.3350   23.9580 C   0  0  0  0  0  0  0  0  0  0  0  0
    9.8610   11.5980   23.2440 C   0  0  0  0  0  0  0  0  0  0  0  0
    9.6350    9.9140   23.4630 S   0  0  0  0  0  0  0  0  0  0  0  0
    8.3270   10.1630   24.5390 C   0  0  0  0  0  0  0  0  0  0  0  0
    8.0890   11.5060   24.7130 C   0  0  0  0  0  0  0  0  0  0  0  0
 10  8  1  0
  9  8  2  0
  7  8  1  6
  7  4  1  0
  4  3  1  0
  3  2  1  0
  2  1  2  0
  5  2  1  0
 11  5  1  0
 12 11  1  0
 12 16  1  0
 16 15  2  0
 15 14  1  0
 14 13  1  0
 13 12  2  0
  6  5  1  0
  7  6  1  0
M  END
$$$$
