XX01ZVNS2B-x3506_B_203_1_XX01ZVNS2B-x4590+B+203+1__LIG
     RDKit          3D

 27 30  0  0  0  0  0  0  0  0999 V2000
   -2.3750    3.3160  -13.4890 C   0  0  0  0  0  0  0  0  0  0  0  0
   -3.3780    2.1950  -13.6370 C   0  0  0  0  0  0  0  0  0  0  0  0
   -4.4910    2.2920  -12.6190 C   0  0  0  0  0  0  0  0  0  0  0  0
   -5.3640    3.4360  -12.8440 N   0  0  0  0  0  0  0  0  0  0  0  0
   -6.6240    3.2990  -13.2610 C   0  0  0  0  0  0  0  0  0  0  0  0
   -7.1580    2.2170  -13.4800 O   0  0  0  0  0  0  0  0  0  0  0  0
   -7.3990    4.6110  -13.4470 C   0  0  2  0  0  0  0  0  0  0  0  0
   -8.6200    4.5450  -12.6770 N   0  0  0  0  0  0  0  0  0  0  0  0
   -8.5800    4.4570  -11.2920 C   0  0  0  0  0  0  0  0  0  0  0  0
   -8.1270    5.5560  -10.5430 C   0  0  0  0  0  0  0  0  0  0  0  0
   -8.0910    5.4790   -9.1610 C   0  0  0  0  0  0  0  0  0  0  0  0
   -8.4240    4.2770   -8.5430 C   0  0  0  0  0  0  0  0  0  0  0  0
   -8.8550    3.1850   -9.2850 C   0  0  0  0  0  0  0  0  0  0  0  0
   -8.9130    3.2480  -10.6700 C   0  0  0  0  0  0  0  0  0  0  0  0
   -9.1990    2.0540   -8.3610 C   0  0  0  0  0  0  0  0  0  0  0  0
   -8.5380    2.4770   -7.1180 N   0  0  0  0  0  0  0  0  0  0  0  0
   -8.5060    3.9460   -7.0800 C   0  0  0  0  0  0  0  0  0  0  0  0
   -7.5740    4.9130  -14.9270 C   0  0  0  0  0  0  0  0  0  0  0  0
   -8.6110    4.3540  -15.6700 C   0  0  0  0  0  0  0  0  0  0  0  0
   -8.7160    4.5960  -17.0450 C   0  0  0  0  0  0  0  0  0  0  0  0
  -10.0630    3.9360  -17.9400 Cl  0  0  0  0  0  0  0  0  0  0  0  0
   -7.7850    5.3540  -17.7310 C   0  0  0  0  0  0  0  0  0  0  0  0
   -6.7530    5.9170  -16.9850 C   0  0  0  0  0  0  0  0  0  0  0  0
   -5.7230    6.7110  -17.3590 N   0  0  0  0  0  0  0  0  0  0  0  0
   -4.9120    6.9920  -16.3000 N   0  0  0  0  0  0  0  0  0  0  0  0
   -5.4370    6.3900  -15.2470 C   0  0  0  0  0  0  0  0  0  0  0  0
   -6.6100    5.6850  -15.6070 C   0  0  0  0  0  0  0  0  0  0  0  0
  1  2  1  0
  2  3  1  0
  3  4  1  0
  4  5  1  0
  5  6  2  0
  5  7  1  0
  7  8  1  6
  8  9  1  0
  9 10  2  0
 10 11  1  0
 11 12  2  0
 12 13  1  0
 13 14  2  0
 13 15  1  0
 15 16  1  0
 16 17  1  0
  7 18  1  0
 18 19  2  0
 19 20  1  0
 20 21  1  0
 20 22  2  0
 22 23  1  0
 23 24  1  0
 24 25  1  0
 25 26  2  0
 26 27  1  0
  9 14  1  0
 18 27  1  0
 12 17  1  0
 23 27  2  0
M  END
$$$$
