A71EV2A-x4826_C_201_1_A71EV2A-x0911+A+147+1__LIG
     RDKit          3D

 20 21  0  0  0  0  0  0  0  0999 V2000
   10.3540   16.6280   19.2440 O   0  0  0  0  0  0  0  0  0  0  0  0
   10.7520   15.4710   19.4740 C   0  0  0  0  0  0  0  0  0  0  0  0
   11.0700   14.6000   18.5190 N   0  0  0  0  0  0  0  0  0  0  0  0
   10.8170   14.9360   20.8960 C   0  0  1  0  0  0  0  0  0  0  0  0
   11.9430   15.6120   21.7080 C   0  0  0  0  0  0  0  0  0  0  0  0
   11.9810   15.0430   23.1290 C   0  0  0  0  0  0  0  0  0  0  0  0
   10.6340   15.2290   23.8130 C   0  0  0  0  0  0  0  0  0  0  0  0
    9.4800   15.1670   21.6100 C   0  0  0  0  0  0  0  0  0  0  0  0
    9.5450   14.6710   22.9900 N   0  0  0  0  0  0  0  0  0  0  0  0
    8.6980   13.6620   23.3600 C   0  0  0  0  0  0  0  0  0  0  0  0
    7.8570   13.2130   22.5940 O   0  0  0  0  0  0  0  0  0  0  0  0
    8.8000   13.2320   24.6510 N   0  0  0  0  0  0  0  0  0  0  0  0
    8.0020   12.1540   25.1360 C   0  0  0  0  0  0  0  0  0  0  0  0
    8.2600   10.8560   24.6880 C   0  0  0  0  0  0  0  0  0  0  0  0
    9.6090   10.5990   23.5770 S   0  0  0  0  0  0  0  0  0  0  0  0
    9.6280    8.8090   23.3610 C   0  0  0  0  0  0  0  0  0  0  0  0
    6.9910   12.3170   26.0790 C   0  0  0  0  0  0  0  0  0  0  0  0
    6.2690   11.3100   26.5800 N   0  0  0  0  0  0  0  0  0  0  0  0
    6.5500   10.0820   26.1430 C   0  0  0  0  0  0  0  0  0  0  0  0
    7.5210    9.7950   25.2000 C   0  0  0  0  0  0  0  0  0  0  0  0
 16 15  1  0
 15 14  1  0
 14 20  2  0
 20 19  1  0
 19 18  2  0
 18 17  1  0
 17 13  2  0
 14 13  1  0
 13 12  1  0
 12 10  1  0
 11 10  2  0
 10  9  1  0
  9  7  1  0
  7  6  1  0
  6  5  1  0
  5  4  1  0
  4  2  1  6
  3  2  1  0
  2  1  2  0
  8  4  1  0
  9  8  1  0
M  END
$$$$
