XX01ZVNS2B-x4887_B_203_6_XX01ZVNS2B-x4590+B+203+1__LIG
     RDKit          3D

 24 27  0  0  0  0  0  0  0  0999 V2000
  -10.5340    3.9670  -18.3030 Cl  0  0  0  0  0  0  0  0  0  0  0  0
   -8.9920    4.3240  -17.5810 C   0  0  0  0  0  0  0  0  0  0  0  0
   -7.9200    4.5820  -18.4130 C   0  0  0  0  0  0  0  0  0  0  0  0
   -6.7210    4.9310  -17.8150 C   0  0  0  0  0  0  0  0  0  0  0  0
   -6.5690    5.0430  -16.4240 C   0  0  0  0  0  0  0  0  0  0  0  0
   -5.2000    5.3650  -16.2400 C   0  0  0  0  0  0  0  0  0  0  0  0
   -4.5640    5.4390  -17.3910 N   0  0  0  0  0  0  0  0  0  0  0  0
   -5.4940    5.1780  -18.3590 N   0  0  0  0  0  0  0  0  0  0  0  0
   -5.1040    5.1740  -19.7720 C   0  0  0  0  0  0  0  0  0  0  0  0
   -4.9300    6.5520  -20.4390 C   0  0  0  0  0  0  0  0  0  0  0  0
   -3.6150    4.9230  -20.0950 C   0  0  0  0  0  0  0  0  0  0  0  0
   -3.7080    6.0150  -21.0890 N   0  0  0  0  0  0  0  0  0  0  0  0
   -8.8930    4.3990  -16.1970 C   0  0  0  0  0  0  0  0  0  0  0  0
   -7.6840    4.7860  -15.6080 C   0  0  0  0  0  0  0  0  0  0  0  0
   -7.5940    5.0470  -14.1330 C   0  0  0  0  0  0  0  0  0  0  0  0
   -6.7480    5.8210  -13.6860 O   0  0  0  0  0  0  0  0  0  0  0  0
   -8.4480    4.3570  -13.3440 N   0  0  0  0  0  0  0  0  0  0  0  0
   -8.4830    4.3760  -11.9280 C   0  0  0  0  0  0  0  0  0  0  0  0
   -8.3860    5.5650  -11.2090 C   0  0  0  0  0  0  0  0  0  0  0  0
   -8.4410    5.5550   -9.8260 C   0  0  0  0  0  0  0  0  0  0  0  0
   -8.5970    4.3550   -9.1900 C   0  0  0  0  0  0  0  0  0  0  0  0
   -8.6540    4.3430   -7.8300 F   0  0  0  0  0  0  0  0  0  0  0  0
   -8.6900    3.1640   -9.8590 C   0  0  0  0  0  0  0  0  0  0  0  0
   -8.6260    3.1770  -11.2410 C   0  0  0  0  0  0  0  0  0  0  0  0
 12 10  1  0
 10  9  1  0
  9  8  1  0
  8  7  1  0
  7  6  2  0
  6  5  1  0
  5 14  2  0
 15 14  1  0
 16 15  2  0
 17 15  1  0
 18 17  1  0
 18 24  2  0
 24 23  1  0
 23 21  2  0
 22 21  1  0
 21 20  1  0
 20 19  2  0
 19 18  1  0
 14 13  1  0
 13  2  2  0
  2  1  1  0
  3  2  1  0
  4  3  2  0
  5  4  1  0
  8  4  1  0
 11  9  1  0
 12 11  1  0
M  END
$$$$
