A71EV2A-x4829_C_201_1_A71EV2A-x0911+A+147+1__LIG
     RDKit          3D

 21 22  0  0  0  0  0  0  0  0999 V2000
   10.4400   16.6460   19.2510 O   0  0  0  0  0  0  0  0  0  0  0  0
   10.8430   15.4930   19.4690 C   0  0  0  0  0  0  0  0  0  0  0  0
   11.1250   14.6320   18.4850 N   0  0  0  0  0  0  0  0  0  0  0  0
   10.9090   14.9440   20.8840 C   0  0  1  0  0  0  0  0  0  0  0  0
   11.9840   15.6490   21.7440 C   0  0  0  0  0  0  0  0  0  0  0  0
   12.0220   15.0380   23.1510 C   0  0  0  0  0  0  0  0  0  0  0  0
   10.6430   15.0800   23.8070 C   0  0  0  0  0  0  0  0  0  0  0  0
    9.5520   15.0800   21.5810 C   0  0  0  0  0  0  0  0  0  0  0  0
    9.6230   14.4960   22.9260 N   0  0  0  0  0  0  0  0  0  0  0  0
    8.7380   13.5430   23.2610 C   0  0  0  0  0  0  0  0  0  0  0  0
    7.8140   13.1820   22.5770 O   0  0  0  0  0  0  0  0  0  0  0  0
    8.9640   13.0850   24.5300 O   0  0  0  0  0  0  0  0  0  0  0  0
    8.0650   12.0910   24.9720 C   0  0  0  0  0  0  0  0  0  0  0  0
    8.2690   10.7600   24.5780 C   0  0  0  0  0  0  0  0  0  0  0  0
    9.2940   10.5610   23.6930 O   0  0  0  0  0  0  0  0  0  0  0  0
    9.5400    9.2070   23.2490 C   0  0  0  0  0  0  0  0  0  0  0  0
    7.0750   12.4090   25.8800 C   0  0  0  0  0  0  0  0  0  0  0  0
    6.2940   11.3910   26.3950 C   0  0  0  0  0  0  0  0  0  0  0  0
    4.9590   11.8010   27.4500 Cl  0  0  0  0  0  0  0  0  0  0  0  0
    6.4800   10.0790   26.0270 C   0  0  0  0  0  0  0  0  0  0  0  0
    7.4640    9.7590   25.1040 C   0  0  0  0  0  0  0  0  0  0  0  0
 16 15  1  0
 15 14  1  0
 14 21  2  0
 21 20  1  0
 20 18  2  0
 19 18  1  0
 18 17  1  0
 17 13  2  0
 14 13  1  0
 13 12  1  0
 12 10  1  0
 11 10  2  0
 10  9  1  0
  9  7  1  0
  7  6  1  0
  6  5  1  0
  5  4  1  0
  4  2  1  6
  3  2  1  0
  2  1  2  0
  8  4  1  0
  9  8  1  0
M  END
$$$$
