XX01ZVNS2B-x3561_B_203_1_XX01ZVNS2B-x4590+B+203+1__LIG
     RDKit          3D

 30 34  0  0  0  0  0  0  0  0999 V2000
   -5.6130    4.6240  -12.6420 O   0  0  0  0  0  0  0  0  0  0  0  0
   -6.4610    4.1480  -13.3890 C   0  0  0  0  0  0  0  0  0  0  0  0
   -6.4320    2.8990  -13.8590 N   0  0  0  0  0  0  0  0  0  0  0  0
   -5.4980    1.8880  -13.4110 C   0  0  0  0  0  0  0  0  0  0  0  0
   -4.0380    2.2390  -13.6660 C   0  0  1  0  0  0  0  0  0  0  0  0
   -3.6100    2.9350  -14.9670 C   0  0  0  0  0  0  0  0  0  0  0  0
   -2.7150    4.0600  -14.5130 C   0  0  0  0  0  0  0  0  0  0  0  0
   -2.3550    3.6160  -13.1480 C   0  0  0  0  0  0  0  0  0  0  0  0
   -3.5510    3.0650  -12.6190 O   0  0  0  0  0  0  0  0  0  0  0  0
   -7.6900    4.9630  -13.8130 C   0  0  2  0  0  0  0  0  0  0  0  0
   -8.7950    4.4090  -13.0600 N   0  0  0  0  0  0  0  0  0  0  0  0
   -8.7160    4.4430  -11.6710 C   0  0  0  0  0  0  0  0  0  0  0  0
   -8.3100    5.6320  -11.0330 C   0  0  0  0  0  0  0  0  0  0  0  0
   -8.1520    5.6720   -9.6590 C   0  0  0  0  0  0  0  0  0  0  0  0
   -8.3240    4.5050   -8.9290 C   0  0  0  0  0  0  0  0  0  0  0  0
   -8.6970    3.3220   -9.5520 C   0  0  0  0  0  0  0  0  0  0  0  0
   -8.8540    3.2600  -10.9310 C   0  0  0  0  0  0  0  0  0  0  0  0
   -8.8560    2.2480   -8.5140 C   0  0  0  0  0  0  0  0  0  0  0  0
   -8.1070    2.8220   -7.3850 N   0  0  0  0  0  0  0  0  0  0  0  0
   -8.2480    4.2840   -7.4460 C   0  0  0  0  0  0  0  0  0  0  0  0
   -7.7710    4.9890  -15.3350 C   0  0  0  0  0  0  0  0  0  0  0  0
   -8.8640    4.4840  -16.0400 C   0  0  0  0  0  0  0  0  0  0  0  0
   -8.8840    4.5120  -17.4410 C   0  0  0  0  0  0  0  0  0  0  0  0
  -10.2610    3.8760  -18.3050 Cl  0  0  0  0  0  0  0  0  0  0  0  0
   -7.8340    5.0130  -18.1860 C   0  0  0  0  0  0  0  0  0  0  0  0
   -6.7520    5.5330  -17.4830 C   0  0  0  0  0  0  0  0  0  0  0  0
   -5.6020    6.0890  -17.9250 N   0  0  0  0  0  0  0  0  0  0  0  0
   -4.8010    6.4480  -16.8830 N   0  0  0  0  0  0  0  0  0  0  0  0
   -5.4510    6.1310  -15.7770 C   0  0  0  0  0  0  0  0  0  0  0  0
   -6.7010    5.5370  -16.0800 C   0  0  0  0  0  0  0  0  0  0  0  0
  1  2  2  0
  2  3  1  0
  3  4  1  0
  5  4  1  6
  5  6  1  0
  6  7  1  0
  7  8  1  0
  8  9  1  0
  2 10  1  0
 10 11  1  1
 11 12  1  0
 12 13  2  0
 13 14  1  0
 14 15  2  0
 15 16  1  0
 16 17  2  0
 16 18  1  0
 18 19  1  0
 19 20  1  0
 10 21  1  0
 21 22  2  0
 22 23  1  0
 23 24  1  0
 23 25  2  0
 25 26  1  0
 26 27  1  0
 27 28  1  0
 28 29  2  0
 29 30  1  0
  5  9  1  0
 12 17  1  0
 21 30  1  0
 15 20  1  0
 26 30  2  0
M  END
$$$$
