XX01ZVNS2B-x0455_B_204_1_XX01ZVNS2B-x4590+B+203+1__LIG
     RDKit          3D

 10 11  0  0  0  0  0  0  0  0999 V2000
   -7.4660    4.7530  -14.7890 C   0  0  0  0  0  0  0  0  0  0  0  0
   -5.9490    4.7480  -14.6660 C   0  0  0  0  0  0  0  0  0  0  0  0
   -7.9360    4.5950  -16.2090 C   0  0  0  0  0  0  0  0  0  0  0  0
   -7.0730    4.8630  -17.2870 C   0  0  0  0  0  0  0  0  0  0  0  0
   -5.7780    5.2760  -17.0920 N   0  0  0  0  0  0  0  0  0  0  0  0
   -5.2000    5.4800  -15.7700 C   0  0  0  0  0  0  0  0  0  0  0  0
   -9.1990    4.1740  -16.3760 N   0  0  0  0  0  0  0  0  0  0  0  0
   -9.6450    4.0080  -17.6310 C   0  0  0  0  0  0  0  0  0  0  0  0
   -8.8700    4.2340  -18.7470 C   0  0  0  0  0  0  0  0  0  0  0  0
   -7.5640    4.6630  -18.5740 C   0  0  0  0  0  0  0  0  0  0  0  0
  2  6  1  0
  6  5  1  0
  5  4  1  0
  4 10  2  0
 10  9  1  0
  9  8  2  0
  8  7  1  0
  7  3  2  0
  4  3  1  0
  3  1  1  0
  2  1  1  0
M  END
$$$$
