A71EV2A-x4237_C_201_1_A71EV2A-x0911+A+147+1_ALIG
     RDKit          3D

 26 28  0  0  0  0  0  0  0  0999 V2000
    8.8270   19.0800   27.0420 F   0  0  0  0  0  0  0  0  0  0  0  0
    8.4350   17.7980   26.8060 C   0  0  0  0  0  0  0  0  0  0  0  0
    9.0770   16.7880   27.4620 C   0  0  0  0  0  0  0  0  0  0  0  0
    8.7250   15.4840   27.1600 C   0  0  0  0  0  0  0  0  0  0  0  0
    7.4400   17.5750   25.8990 C   0  0  0  0  0  0  0  0  0  0  0  0
    7.1060   16.2650   25.6030 C   0  0  0  0  0  0  0  0  0  0  0  0
    7.7680   15.2020   26.1970 C   0  0  0  0  0  0  0  0  0  0  0  0
    7.6100   13.8030   25.6610 C   0  0  0  0  0  0  0  0  0  0  0  0
    8.8090   13.3920   24.7810 C   0  0  1  0  0  0  0  0  0  0  0  0
    8.9450   11.9030   24.5150 C   0  0  0  0  0  0  0  0  0  0  0  0
    9.9740   11.4320   23.7100 C   0  0  0  0  0  0  0  0  0  0  0  0
   10.1210   10.0780   23.4710 C   0  0  0  0  0  0  0  0  0  0  0  0
    9.2450    9.1800   24.0260 C   0  0  0  0  0  0  0  0  0  0  0  0
    8.2110    9.6310   24.8140 C   0  0  0  0  0  0  0  0  0  0  0  0
    8.0570   10.9850   25.0530 C   0  0  0  0  0  0  0  0  0  0  0  0
    8.6220   13.9690   23.3800 C   0  0  0  0  0  0  0  0  0  0  0  0
    7.7270   13.5400   22.6650 O   0  0  0  0  0  0  0  0  0  0  0  0
    9.4800   14.9230   22.9540 N   0  0  0  0  0  0  0  0  0  0  0  0
   10.5170   15.5780   23.7690 C   0  0  0  0  0  0  0  0  0  0  0  0
   11.9070   15.3690   23.1650 C   0  0  0  0  0  0  0  0  0  0  0  0
   11.9310   15.7630   21.6850 C   0  0  0  0  0  0  0  0  0  0  0  0
    9.4640   15.3740   21.5600 C   0  0  0  0  0  0  0  0  0  0  0  0
   10.8110   15.0620   20.8990 C   0  0  1  0  0  0  0  0  0  0  0  0
   10.7590   15.5300   19.4540 C   0  0  0  0  0  0  0  0  0  0  0  0
   10.4250   16.6870   19.1710 O   0  0  0  0  0  0  0  0  0  0  0  0
   11.0050   14.6030   18.5370 N   0  0  0  0  0  0  0  0  0  0  0  0
 26 24  1  0
 25 24  2  0
 23 24  1  6
 23 21  1  0
 21 20  1  0
 20 19  1  0
 19 18  1  0
 18 16  1  0
 17 16  2  0
 16  9  1  0
  9  8  1  1
  8  7  1  0
  7  4  2  0
  4  3  1  0
  3  2  2  0
  2  1  1  0
  5  2  1  0
  6  5  2  0
  7  6  1  0
 10  9  1  0
 10 15  2  0
 15 14  1  0
 14 13  2  0
 13 12  1  0
 12 11  2  0
 11 10  1  0
 22 18  1  0
 23 22  1  0
M  END
$$$$
A71EV2A-x4237_C_201_1_A71EV2A-x0911+A+147+1_BLIG
     RDKit          3D

 26 28  0  0  0  0  0  0  0  0999 V2000
    6.3280   12.1430   30.8770 F   0  0  0  0  0  0  0  0  0  0  0  0
    6.4610   12.4800   29.5620 C   0  0  0  0  0  0  0  0  0  0  0  0
    7.1880   13.5920   29.2410 C   0  0  0  0  0  0  0  0  0  0  0  0
    7.3580   13.8990   27.9020 C   0  0  0  0  0  0  0  0  0  0  0  0
    5.8880   11.6720   28.6200 C   0  0  0  0  0  0  0  0  0  0  0  0
    6.0670   11.9940   27.2860 C   0  0  0  0  0  0  0  0  0  0  0  0
    6.7980   13.1090   26.9080 C   0  0  0  0  0  0  0  0  0  0  0  0
    6.9340   13.4850   25.4520 C   0  0  0  0  0  0  0  0  0  0  0  0
    8.3960   13.5070   24.9550 C   0  0  1  0  0  0  0  0  0  0  0  0
    9.0530   12.1340   24.9720 C   0  0  0  0  0  0  0  0  0  0  0  0
   10.4300   12.0230   25.0920 C   0  0  0  0  0  0  0  0  0  0  0  0
   11.0640   10.8140   24.8630 C   0  0  0  0  0  0  0  0  0  0  0  0
   10.3320    9.6980   24.5400 C   0  0  0  0  0  0  0  0  0  0  0  0
    8.9610    9.7790   24.4700 C   0  0  0  0  0  0  0  0  0  0  0  0
    8.3230   10.9880   24.6890 C   0  0  0  0  0  0  0  0  0  0  0  0
    8.4030   13.8830   23.4740 C   0  0  0  0  0  0  0  0  0  0  0  0
    7.6150   13.3410   22.7130 O   0  0  0  0  0  0  0  0  0  0  0  0
    9.2890   14.8090   23.0370 N   0  0  0  0  0  0  0  0  0  0  0  0
   10.3160   15.4670   23.8610 C   0  0  0  0  0  0  0  0  0  0  0  0
   11.7070   15.2920   23.2550 C   0  0  0  0  0  0  0  0  0  0  0  0
   11.7240   15.7270   21.7880 C   0  0  0  0  0  0  0  0  0  0  0  0
    9.2690   15.2670   21.6430 C   0  0  0  0  0  0  0  0  0  0  0  0
   10.6270   15.0240   20.9720 C   0  0  1  0  0  0  0  0  0  0  0  0
   10.5730   15.5580   19.5510 C   0  0  0  0  0  0  0  0  0  0  0  0
   10.2440   16.7270   19.3190 O   0  0  0  0  0  0  0  0  0  0  0  0
   10.8480   14.6820   18.5920 N   0  0  0  0  0  0  0  0  0  0  0  0
 26 24  1  0
 25 24  2  0
 23 24  1  6
 23 21  1  0
 21 20  1  0
 20 19  1  0
 19 18  1  0
 18 16  1  0
 17 16  2  0
 16  9  1  0
  9  8  1  6
  8  7  1  0
  7  4  2  0
  4  3  1  0
  3  2  2  0
  2  1  1  0
  5  2  1  0
  6  5  2  0
  7  6  1  0
 10  9  1  0
 10 15  2  0
 15 14  1  0
 14 13  2  0
 13 12  1  0
 12 11  2  0
 11 10  1  0
 22 18  1  0
 23 22  1  0
M  END
$$$$
