XX01ZVNS2B-x3486_B_203_1_XX01ZVNS2B-x4590+B+203+1__LIG
     RDKit          3D

 22 25  0  0  0  0  0  0  0  0999 V2000
   -3.3250    5.3090  -17.5030 C   0  0  0  0  0  0  0  0  0  0  0  0
   -4.7130    5.0630  -17.1390 N   0  0  0  0  0  0  0  0  0  0  0  0
   -5.2290    5.0110  -15.9110 C   0  0  0  0  0  0  0  0  0  0  0  0
   -6.5780    4.7440  -16.0420 C   0  0  0  0  0  0  0  0  0  0  0  0
   -7.6600    4.5150  -15.1450 C   0  0  0  0  0  0  0  0  0  0  0  0
   -7.4940    4.6750  -13.6640 C   0  0  0  0  0  0  0  0  0  0  0  0
   -6.5910    5.3840  -13.2270 O   0  0  0  0  0  0  0  0  0  0  0  0
   -8.3330    3.9640  -12.8740 N   0  0  0  0  0  0  0  0  0  0  0  0
   -8.4540    3.9990  -11.4550 C   0  0  0  0  0  0  0  0  0  0  0  0
   -8.2740    5.1850  -10.7430 C   0  0  0  0  0  0  0  0  0  0  0  0
   -8.3900    5.1980   -9.3610 C   0  0  0  0  0  0  0  0  0  0  0  0
   -8.6240    4.0040   -8.6920 C   0  0  0  0  0  0  0  0  0  0  0  0
   -8.8290    2.8270   -9.3990 C   0  0  0  0  0  0  0  0  0  0  0  0
   -8.7040    2.7980  -10.7800 C   0  0  0  0  0  0  0  0  0  0  0  0
   -9.1290    1.7100   -8.4390 C   0  0  0  0  0  0  0  0  0  0  0  0
   -8.6960    2.2860   -7.1530 N   0  0  0  0  0  0  0  0  0  0  0  0
   -8.8130    3.7500   -7.2220 C   0  0  0  0  0  0  0  0  0  0  0  0
   -8.9060    4.2670  -15.6990 C   0  0  0  0  0  0  0  0  0  0  0  0
   -9.1040    4.1630  -17.0730 C   0  0  0  0  0  0  0  0  0  0  0  0
   -8.0730    4.3280  -17.9640 C   0  0  0  0  0  0  0  0  0  0  0  0
   -6.7910    4.6270  -17.4420 C   0  0  0  0  0  0  0  0  0  0  0  0
   -5.6350    4.8310  -18.1140 N   0  0  0  0  0  0  0  0  0  0  0  0
  1  2  1  0
  2  3  1  0
  3  4  2  0
  4  5  1  0
  5  6  1  0
  6  7  2  0
  6  8  1  0
  8  9  1  0
  9 10  2  0
 10 11  1  0
 11 12  2  0
 12 13  1  0
 13 14  2  0
 13 15  1  0
 15 16  1  0
 16 17  1  0
  5 18  2  0
 18 19  1  0
 19 20  2  0
 20 21  1  0
 21 22  2  0
  2 22  1  0
  4 21  1  0
  9 14  1  0
 12 17  1  0
M  END
$$$$
