A71EV2A-x3176_A_201_1_A71EV2A-x0911+A+147+1__LIG
     RDKit          3D

 18 19  0  0  0  0  0  0  0  0999 V2000
    9.2050   14.6080   24.1040 O   0  0  0  0  0  0  0  0  0  0  0  0
    9.6580   13.6160   23.5320 C   0  0  0  0  0  0  0  0  0  0  0  0
   10.6900   13.6770   22.6820 N   0  0  0  0  0  0  0  0  0  0  0  0
   11.5280   14.8730   22.6240 C   0  0  1  0  0  0  0  0  0  0  0  0
   12.6850   14.7690   23.6050 C   0  0  0  0  0  0  0  0  0  0  0  0
   12.0310   15.0670   21.1760 C   0  0  0  0  0  0  0  0  0  0  0  0
   10.9050   15.1610   20.3180 O   0  0  0  0  0  0  0  0  0  0  0  0
   11.2400   14.9010   18.9650 C   0  0  0  0  0  0  0  0  0  0  0  0
    9.0640   12.2510   23.7870 C   0  0  0  0  0  0  0  0  0  0  0  0
    7.9700   11.9280   24.6650 C   0  0  0  0  0  0  0  0  0  0  0  0
    7.8250   10.5370   24.5600 C   0  0  0  0  0  0  0  0  0  0  0  0
    8.7800   10.1070   23.6860 N   0  0  0  0  0  0  0  0  0  0  0  0
    9.0830    8.7380   23.2910 C   0  0  0  0  0  0  0  0  0  0  0  0
    9.5470   11.1520   23.2020 N   0  0  0  0  0  0  0  0  0  0  0  0
    7.1660   12.6250   25.5610 C   0  0  0  0  0  0  0  0  0  0  0  0
    6.2450   11.9300   26.3390 C   0  0  0  0  0  0  0  0  0  0  0  0
    6.1070   10.5540   26.2170 C   0  0  0  0  0  0  0  0  0  0  0  0
    6.8940    9.8410   25.3210 C   0  0  0  0  0  0  0  0  0  0  0  0
  8  7  1  0
  7  6  1  0
  6  4  1  0
  4  5  1  1
  4  3  1  0
  3  2  1  0
  2  1  2  0
  9  2  1  0
  9 14  2  0
 14 12  1  0
 13 12  1  0
 12 11  1  0
 11 18  2  0
 18 17  1  0
 17 16  2  0
 16 15  1  0
 15 10  2  0
 10  9  1  0
 11 10  1  0
M  END
$$$$
