A71EV2A-x4308_A_201_1_A71EV2A-x0911+A+147+1__LIG
     RDKit          3D

 22 24  0  0  0  0  0  0  0  0999 V2000
    8.7460   10.4500   24.2910 Cl  0  0  0  0  0  0  0  0  0  0  0  0
    7.5610   11.2360   25.2900 C   0  0  0  0  0  0  0  0  0  0  0  0
    6.7000   10.4420   26.0240 C   0  0  0  0  0  0  0  0  0  0  0  0
    5.8260   11.0690   26.8750 C   0  0  0  0  0  0  0  0  0  0  0  0
    4.9460   10.5020   27.7670 O   0  0  0  0  0  0  0  0  0  0  0  0
    4.5800   11.5690   28.6430 C   0  0  0  0  0  0  0  0  0  0  0  0
    4.9220   12.7940   27.9940 O   0  0  0  0  0  0  0  0  0  0  0  0
    5.7830   12.4320   26.9830 C   0  0  0  0  0  0  0  0  0  0  0  0
    6.6030   13.2440   26.2250 C   0  0  0  0  0  0  0  0  0  0  0  0
    7.5290   12.6400   25.3720 C   0  0  0  0  0  0  0  0  0  0  0  0
    8.4780   13.4060   24.6630 N   0  0  0  0  0  0  0  0  0  0  0  0
    8.5070   13.6200   23.3180 C   0  0  0  0  0  0  0  0  0  0  0  0
    7.6250   13.2110   22.5700 O   0  0  0  0  0  0  0  0  0  0  0  0
    9.5480   14.3730   22.8520 N   0  0  0  0  0  0  0  0  0  0  0  0
   10.5290   15.0300   23.7320 C   0  0  0  0  0  0  0  0  0  0  0  0
   11.9060   15.0750   23.0870 C   0  0  0  0  0  0  0  0  0  0  0  0
   11.8340   15.6600   21.6720 C   0  0  0  0  0  0  0  0  0  0  0  0
    9.4490   14.9730   21.5180 C   0  0  0  0  0  0  0  0  0  0  0  0
   10.8030   14.9130   20.8110 C   0  0  1  0  0  0  0  0  0  0  0  0
   10.7520   15.4440   19.3870 C   0  0  0  0  0  0  0  0  0  0  0  0
   10.4470   16.6160   19.1540 O   0  0  0  0  0  0  0  0  0  0  0  0
   10.9920   14.5650   18.4320 N   0  0  0  0  0  0  0  0  0  0  0  0
 22 20  1  0
 21 20  2  0
 19 20  1  6
 19 17  1  0
 17 16  1  0
 16 15  1  0
 15 14  1  0
 14 12  1  0
 13 12  2  0
 12 11  1  0
 11 10  1  0
 10  9  2  0
  9  8  1  0
  8  4  2  0
  4  3  1  0
  3  2  2  0
 10  2  1  0
  2  1  1  0
  5  4  1  0
  6  5  1  0
  7  6  1  0
  8  7  1  0
 18 14  1  0
 19 18  1  0
M  END
$$$$
