A71EV2A-x4611_C_201_1_A71EV2A-x0911+A+147+1__LIG
     RDKit          3D

 20 22  0  0  0  0  0  0  0  0999 V2000
   10.8460   14.9640   25.1850 O   0  0  0  0  0  0  0  0  0  0  0  0
   10.8150   15.0640   23.9650 C   0  0  0  0  0  0  0  0  0  0  0  0
   12.1040   15.2160   23.1950 C   0  0  0  0  0  0  0  0  0  0  0  0
   11.9270   15.7520   21.7770 C   0  0  0  0  0  0  0  0  0  0  0  0
    9.6500   15.0690   23.2590 N   0  0  0  0  0  0  0  0  0  0  0  0
    9.4860   15.1740   21.8010 C   0  0  0  0  0  0  0  0  0  0  0  0
   10.8110   14.9910   21.0470 C   0  0  1  0  0  0  0  0  0  0  0  0
   10.6680   15.4820   19.6150 C   0  0  0  0  0  0  0  0  0  0  0  0
   10.2910   16.6340   19.3710 O   0  0  0  0  0  0  0  0  0  0  0  0
   10.9740   14.6050   18.6690 N   0  0  0  0  0  0  0  0  0  0  0  0
    8.4020   15.1220   24.0070 C   0  0  0  0  0  0  0  0  0  0  0  0
    7.9720   13.8200   24.6340 C   0  0  0  0  0  0  0  0  0  0  0  0
    8.3200   12.4810   24.1490 C   0  0  0  0  0  0  0  0  0  0  0  0
    7.5510   11.6450   24.9440 C   0  0  0  0  0  0  0  0  0  0  0  0
    6.8250   12.3740   25.8320 O   0  0  0  0  0  0  0  0  0  0  0  0
    7.1320   13.7640   25.6090 N   0  0  0  0  0  0  0  0  0  0  0  0
    9.2560   11.8990   23.2960 C   0  0  0  0  0  0  0  0  0  0  0  0
    9.3770   10.5170   23.2460 C   0  0  0  0  0  0  0  0  0  0  0  0
    8.5570    9.7080   24.0160 C   0  0  0  0  0  0  0  0  0  0  0  0
    7.6260   10.2680   24.8810 C   0  0  0  0  0  0  0  0  0  0  0  0
 10  8  1  0
  9  8  2  0
  7  8  1  6
  7  4  1  0
  4  3  1  0
  3  2  1  0
  2  1  2  0
  5  2  1  0
 11  5  1  0
 12 11  1  0
 12 16  2  0
 16 15  1  0
 15 14  1  0
 14 20  2  0
 20 19  1  0
 19 18  2  0
 18 17  1  0
 17 13  2  0
 13 12  1  0
 14 13  1  0
  6  5  1  0
  7  6  1  0
M  END
$$$$
