XX01ZVNS2B-x4072_B_203_1_XX01ZVNS2B-x4590+B+203+1__LIG
     RDKit          3D

 28 31  0  0  0  0  0  0  0  0999 V2000
  -10.0150    4.1530  -17.9510 Cl  0  0  0  0  0  0  0  0  0  0  0  0
   -8.6130    4.5040  -16.9650 C   0  0  0  0  0  0  0  0  0  0  0  0
   -8.6490    4.2560  -15.5980 C   0  0  0  0  0  0  0  0  0  0  0  0
   -7.5040    5.0570  -17.5690 C   0  0  0  0  0  0  0  0  0  0  0  0
   -6.4120    5.4270  -16.7930 C   0  0  0  0  0  0  0  0  0  0  0  0
   -5.2790    6.2280  -17.3970 C   0  0  0  0  0  0  0  0  0  0  0  0
   -5.1890    6.4260  -18.8810 C   0  0  0  0  0  0  0  0  0  0  0  0
   -4.1940    5.5720  -18.2000 C   0  0  0  0  0  0  0  0  0  0  0  0
   -6.4400    5.1540  -15.4330 C   0  0  0  0  0  0  0  0  0  0  0  0
   -7.5340    4.5660  -14.8170 C   0  0  0  0  0  0  0  0  0  0  0  0
   -7.4450    4.2530  -13.3290 C   0  0  2  0  0  0  0  0  0  0  0  0
   -6.7690    2.8590  -13.1300 C   0  0  0  0  0  0  0  0  0  0  0  0
   -5.6290    2.9040  -12.4390 N   0  0  0  0  0  0  0  0  0  0  0  0
   -4.5770    1.9080  -12.5460 C   0  0  0  0  0  0  0  0  0  0  0  0
   -3.5450    2.2930  -13.6820 C   0  0  0  0  0  0  0  0  0  0  0  0
   -3.0560    3.5350  -13.4250 F   0  0  0  0  0  0  0  0  0  0  0  0
   -4.2350    2.4090  -14.8440 F   0  0  0  0  0  0  0  0  0  0  0  0
   -7.2440    1.8220  -13.5880 O   0  0  0  0  0  0  0  0  0  0  0  0
   -8.5670    4.4640  -12.4440 N   0  0  0  0  0  0  0  0  0  0  0  0
   -8.4030    4.4210  -11.0730 C   0  0  0  0  0  0  0  0  0  0  0  0
   -8.6800    3.2410  -10.5070 N   0  0  0  0  0  0  0  0  0  0  0  0
   -8.7220    3.1930   -9.1690 C   0  0  0  0  0  0  0  0  0  0  0  0
   -9.0200    2.0260   -8.2890 C   0  0  0  0  0  0  0  0  0  0  0  0
   -8.8070    2.4960   -6.9210 N   0  0  0  0  0  0  0  0  0  0  0  0
   -8.6240    3.9400   -6.8760 C   0  0  0  0  0  0  0  0  0  0  0  0
   -8.4860    4.2860   -8.3300 C   0  0  0  0  0  0  0  0  0  0  0  0
   -8.1760    5.4950   -8.9420 C   0  0  0  0  0  0  0  0  0  0  0  0
   -8.1180    5.5760  -10.3260 C   0  0  0  0  0  0  0  0  0  0  0  0
 18 12  2  0
 13 12  1  0
 14 13  1  0
 15 14  1  0
 17 15  1  0
 16 15  1  0
 12 11  1  0
 11 19  1  6
 20 19  1  0
 20 28  2  0
 28 27  1  0
 27 26  2  0
 26 22  1  0
 22 21  2  0
 21 20  1  0
 23 22  1  0
 24 23  1  0
 25 24  1  0
 26 25  1  0
 11 10  1  0
 10  3  1  0
  3  2  2  0
  2  1  1  0
  4  2  1  0
  5  4  2  0
  6  5  1  0
  6  8  1  0
  8  7  1  0
  7  6  1  0
  9  5  1  0
 10  9  2  0
M  END
$$$$
