XX01ZVNS2B-x0904_B_301_1_XX01ZVNS2B-x4590+B+203+1__LIG
     RDKit          3D

 14 14  0  0  0  0  0  0  0  0999 V2000
   -8.7970    4.8330  -15.1190 F   0  0  0  0  0  0  0  0  0  0  0  0
   -8.4430    4.8070  -16.4320 C   0  0  0  0  0  0  0  0  0  0  0  0
   -9.3540    4.3390  -17.3330 C   0  0  0  0  0  0  0  0  0  0  0  0
   -8.9450    4.1630  -18.6350 C   0  0  0  0  0  0  0  0  0  0  0  0
   -7.6450    4.4590  -19.0100 C   0  0  0  0  0  0  0  0  0  0  0  0
   -7.1570    5.1700  -16.7650 C   0  0  0  0  0  0  0  0  0  0  0  0
   -6.7630    4.9800  -18.0800 C   0  0  0  0  0  0  0  0  0  0  0  0
   -5.4620    5.2880  -18.4110 O   0  0  0  0  0  0  0  0  0  0  0  0
   -5.0760    5.3900  -19.7900 C   0  0  0  0  0  0  0  0  0  0  0  0
   -3.6770    4.8310  -19.9810 C   0  0  0  0  0  0  0  0  0  0  0  0
   -3.1010    4.3030  -19.0430 O   0  0  0  0  0  0  0  0  0  0  0  0
   -3.0910    4.9660  -21.1840 N   0  0  0  0  0  0  0  0  0  0  0  0
   -1.7050    5.3980  -21.2940 C   0  0  0  0  0  0  0  0  0  0  0  0
   -3.7820    4.7400  -22.4570 C   0  0  0  0  0  0  0  0  0  0  0  0
 14 12  1  0
 13 12  1  0
 12 10  1  0
 11 10  2  0
 10  9  1  0
  9  8  1  0
  8  7  1  0
  7  5  1  0
  5  4  2  0
  4  3  1  0
  3  2  2  0
  2  1  1  0
  6  2  1  0
  7  6  2  0
M  END
$$$$
