A71EV2A-x4967_A_201_1_A71EV2A-x0911+A+147+1__LIG
     RDKit          3D

 24 26  0  0  0  0  0  0  0  0999 V2000
   10.3180   16.7290   19.2380 O   0  0  0  0  0  0  0  0  0  0  0  0
   10.6020   15.5520   19.4940 C   0  0  0  0  0  0  0  0  0  0  0  0
   10.9370   14.6710   18.5630 N   0  0  0  0  0  0  0  0  0  0  0  0
   10.5600   15.0260   20.9180 C   0  0  2  0  0  0  0  0  0  0  0  0
    9.3070   15.4270   21.7030 C   0  0  0  0  0  0  0  0  0  0  0  0
   11.8360   15.3650   21.7220 C   0  0  0  0  0  0  0  0  0  0  0  0
   11.5850   16.0340   23.0770 C   0  0  1  0  0  0  0  0  0  0  0  0
   10.5120   15.2700   23.8670 C   0  0  1  0  0  0  0  0  0  0  0  0
   10.0870   16.1250   25.0610 C   0  0  0  0  0  0  0  0  0  0  0  0
   11.3030   16.2500   26.0020 C   0  0  0  0  0  0  0  0  0  0  0  0
   12.5050   16.8960   25.2940 C   0  0  0  0  0  0  0  0  0  0  0  0
   12.8320   16.1880   23.9560 C   0  0  0  0  0  0  0  0  0  0  0  0
    9.3780   14.8130   23.0310 N   0  0  0  0  0  0  0  0  0  0  0  0
    8.5710   13.7660   23.3500 C   0  0  0  0  0  0  0  0  0  0  0  0
    7.6690   13.4000   22.6050 O   0  0  0  0  0  0  0  0  0  0  0  0
    8.8560   13.0260   24.6430 C   0  0  0  0  0  0  0  0  0  0  0  0
    7.8020   11.9830   24.9250 C   0  0  0  0  0  0  0  0  0  0  0  0
    7.9530   10.6710   24.4770 C   0  0  0  0  0  0  0  0  0  0  0  0
    9.0680   10.4530   23.7060 O   0  0  0  0  0  0  0  0  0  0  0  0
    9.3960    9.1110   23.3390 C   0  0  0  0  0  0  0  0  0  0  0  0
    6.7090   12.2390   25.7280 C   0  0  0  0  0  0  0  0  0  0  0  0
    5.8190   11.3250   26.1200 N   0  0  0  0  0  0  0  0  0  0  0  0
    6.0030   10.0770   25.6840 C   0  0  0  0  0  0  0  0  0  0  0  0
    7.0390    9.6960   24.8500 C   0  0  0  0  0  0  0  0  0  0  0  0
 20 19  1  0
 19 18  1  0
 18 24  2  0
 24 23  1  0
 23 22  2  0
 22 21  1  0
 21 17  2  0
 18 17  1  0
 17 16  1  0
 16 14  1  0
 15 14  2  0
 14 13  1  0
 13  5  1  0
  5  4  1  0
  4  2  1  6
  3  2  1  0
  2  1  2  0
  6  4  1  0
  7  6  1  6
  7 12  1  0
 12 11  1  0
 11 10  1  0
 10  9  1  0
  8  9  1  1
  8  7  1  0
 13  8  1  0
M  END
$$$$
