A71EV2A-x4451_C_201_1_A71EV2A-x0911+A+147+1__LIG
     RDKit          3D

 23 25  0  0  0  0  0  0  0  0999 V2000
    8.0160   13.2840   22.7990 O   0  0  0  0  0  0  0  0  0  0  0  0
    8.8790   13.8710   23.4520 C   0  0  0  0  0  0  0  0  0  0  0  0
    9.5750   14.9080   22.9590 N   0  0  0  0  0  0  0  0  0  0  0  0
   10.5760   15.6900   23.7060 C   0  0  0  0  0  0  0  0  0  0  0  0
   11.9380   15.5510   23.0630 C   0  0  0  0  0  0  0  0  0  0  0  0
   11.8660   15.9450   21.5850 C   0  0  0  0  0  0  0  0  0  0  0  0
    9.4440   15.2860   21.5480 C   0  0  0  0  0  0  0  0  0  0  0  0
   10.7940   15.1180   20.8460 C   0  0  1  0  0  0  0  0  0  0  0  0
   10.6360   15.5940   19.4150 C   0  0  0  0  0  0  0  0  0  0  0  0
   10.2940   16.7640   19.1670 O   0  0  0  0  0  0  0  0  0  0  0  0
   10.8230   14.6640   18.4820 N   0  0  0  0  0  0  0  0  0  0  0  0
    9.1920   13.4120   24.8850 C   0  0  1  0  0  0  0  0  0  0  0  0
    8.4130   14.1810   25.8810 N   0  0  0  0  0  0  0  0  0  0  0  0
    9.0250   14.5800   27.0280 N   0  0  0  0  0  0  0  0  0  0  0  0
    8.0730   15.2310   27.6930 C   0  0  0  0  0  0  0  0  0  0  0  0
    6.8700   15.2590   26.9940 C   0  0  0  0  0  0  0  0  0  0  0  0
    7.1210   14.5730   25.8330 C   0  0  0  0  0  0  0  0  0  0  0  0
    8.9920   11.9200   25.0280 C   0  0  0  0  0  0  0  0  0  0  0  0
    9.9240   11.0510   24.4990 C   0  0  0  0  0  0  0  0  0  0  0  0
    9.6460    9.7030   24.3960 C   0  0  0  0  0  0  0  0  0  0  0  0
    8.4480    9.2180   24.8250 C   0  0  0  0  0  0  0  0  0  0  0  0
    7.5290   10.0580   25.3870 C   0  0  0  0  0  0  0  0  0  0  0  0
    7.7940   11.4050   25.4870 C   0  0  0  0  0  0  0  0  0  0  0  0
 11  9  1  0
 10  9  2  0
  8  9  1  6
  8  6  1  0
  6  5  1  0
  5  4  1  0
  4  3  1  0
  3  2  1  0
  2  1  2  0
 12  2  1  0
 18 12  1  0
 18 23  2  0
 23 22  1  0
 22 21  2  0
 21 20  1  0
 20 19  2  0
 19 18  1  0
 12 13  1  1
 13 17  1  0
 17 16  2  0
 16 15  1  0
 15 14  2  0
 14 13  1  0
  7  3  1  0
  8  7  1  0
M  END
$$$$
