A71EV2A-x3280_D_246_1_A71EV2A-x0911+A+147+1__LIG
     RDKit          3D

 23 25  0  0  0  0  0  0  0  0999 V2000
   13.0270   15.9950   21.5320 F   0  0  0  0  0  0  0  0  0  0  0  0
   12.0230   15.0550   21.5090 C   0  0  0  0  0  0  0  0  0  0  0  0
   12.3660   14.2020   20.4830 F   0  0  0  0  0  0  0  0  0  0  0  0
   10.7260   15.7750   21.0680 C   0  0  0  0  0  0  0  0  0  0  0  0
   10.3820   16.9440   21.6300 N   0  0  0  0  0  0  0  0  0  0  0  0
    9.3540   17.6200   21.0900 C   0  0  0  0  0  0  0  0  0  0  0  0
    8.6480   17.1770   20.0040 C   0  0  0  0  0  0  0  0  0  0  0  0
    9.0060   15.9730   19.4460 C   0  0  0  0  0  0  0  0  0  0  0  0
   10.0410   15.2440   19.9920 C   0  0  0  0  0  0  0  0  0  0  0  0
   11.9460   14.2960   22.8090 C   0  0  0  0  0  0  0  0  0  0  0  0
   10.7860   13.4250   22.7950 N   0  0  0  0  0  0  0  0  0  0  0  0
    9.9590   13.3230   23.8380 C   0  0  0  0  0  0  0  0  0  0  0  0
    9.7300   14.2360   24.6260 O   0  0  0  0  0  0  0  0  0  0  0  0
    9.3370   11.9890   24.0270 C   0  0  0  0  0  0  0  0  0  0  0  0
    9.7640   10.9330   23.3290 N   0  0  0  0  0  0  0  0  0  0  0  0
    8.2800   11.6180   24.9230 C   0  0  0  0  0  0  0  0  0  0  0  0
    8.0920   10.2500   24.7010 C   0  0  0  0  0  0  0  0  0  0  0  0
    9.0010    9.8760   23.7530 N   0  0  0  0  0  0  0  0  0  0  0  0
    9.2120    8.5590   23.1770 C   0  0  0  0  0  0  0  0  0  0  0  0
    7.1240    9.5290   25.3850 C   0  0  0  0  0  0  0  0  0  0  0  0
    6.3530   10.1910   26.3320 C   0  0  0  0  0  0  0  0  0  0  0  0
    6.5410   11.5430   26.5790 C   0  0  0  0  0  0  0  0  0  0  0  0
    7.4950   12.2640   25.8760 C   0  0  0  0  0  0  0  0  0  0  0  0
 19 18  1  0
 18 15  1  0
 15 14  2  0
 14 12  1  0
 13 12  2  0
 12 11  1  0
 11 10  1  0
 10  2  1  0
  3  2  1  0
  2  1  1  0
  4  2  1  0
  4  9  2  0
  9  8  1  0
  8  7  2  0
  7  6  1  0
  6  5  2  0
  5  4  1  0
 16 14  1  0
 16 23  2  0
 23 22  1  0
 22 21  2  0
 21 20  1  0
 20 17  2  0
 17 16  1  0
 18 17  1  0
M  END
$$$$
