A71EV2A-x4694_A_201_1_A71EV2A-x0911+A+147+1__LIG
     RDKit          3D

 19 20  0  0  0  0  0  0  0  0999 V2000
   11.7520   14.4670   24.7630 O   0  0  0  0  0  0  0  0  0  0  0  0
   11.5610   14.5590   23.5640 C   0  0  0  0  0  0  0  0  0  0  0  0
   12.7230   14.7670   22.6210 C   0  0  0  0  0  0  0  0  0  0  0  0
   12.3870   14.7740   21.1270 C   0  0  0  0  0  0  0  0  0  0  0  0
   11.0350   15.4570   20.8570 C   0  0  1  0  0  0  0  0  0  0  0  0
   10.7360   15.5960   19.3730 C   0  0  0  0  0  0  0  0  0  0  0  0
   10.0870   16.5570   18.9490 O   0  0  0  0  0  0  0  0  0  0  0  0
   11.1550   14.6130   18.5830 N   0  0  0  0  0  0  0  0  0  0  0  0
    9.9440   14.7050   21.6200 C   0  0  0  0  0  0  0  0  0  0  0  0
   10.3170   14.5010   23.0230 N   0  0  0  0  0  0  0  0  0  0  0  0
    9.1780   14.2000   23.8850 C   0  0  0  0  0  0  0  0  0  0  0  0
    8.9360   12.7190   24.0810 C   0  0  0  0  0  0  0  0  0  0  0  0
    7.8610   12.2580   24.8560 C   0  0  0  0  0  0  0  0  0  0  0  0
    6.8450   13.4640   25.6590 S   0  0  0  0  0  0  0  0  0  0  0  0
    5.6370   12.4710   26.5520 C   0  0  0  0  0  0  0  0  0  0  0  0
    9.7590   11.7740   23.4690 C   0  0  0  0  0  0  0  0  0  0  0  0
    9.5150   10.4160   23.6020 C   0  0  0  0  0  0  0  0  0  0  0  0
    8.4650    9.9780   24.3620 C   0  0  0  0  0  0  0  0  0  0  0  0
    7.6330   10.8900   24.9930 C   0  0  0  0  0  0  0  0  0  0  0  0
 15 14  1  0
 14 13  1  0
 13 19  2  0
 19 18  1  0
 18 17  2  0
 17 16  1  0
 16 12  2  0
 13 12  1  0
 12 11  1  0
 11 10  1  0
 10  9  1  0
  9  5  1  0
  5  6  1  6
  8  6  1  0
  7  6  2  0
  5  4  1  0
  4  3  1  0
  3  2  1  0
 10  2  1  0
  2  1  2  0
M  END
$$$$
