XX01ZVNS2B-x4855_B_203_6_XX01ZVNS2B-x4590+B+203+1__LIG
     RDKit          3D

 27 31  0  0  0  0  0  0  0  0999 V2000
  -10.5600    4.1300  -18.1900 Cl  0  0  0  0  0  0  0  0  0  0  0  0
   -9.0450    4.5010  -17.4180 C   0  0  0  0  0  0  0  0  0  0  0  0
   -7.9450    4.7480  -18.2140 C   0  0  0  0  0  0  0  0  0  0  0  0
   -6.7630    5.0920  -17.5790 C   0  0  0  0  0  0  0  0  0  0  0  0
   -6.6520    5.2070  -16.1830 C   0  0  0  0  0  0  0  0  0  0  0  0
   -5.2860    5.5160  -15.9590 C   0  0  0  0  0  0  0  0  0  0  0  0
   -4.6120    5.5760  -17.0920 N   0  0  0  0  0  0  0  0  0  0  0  0
   -5.5180    5.3220  -18.0870 N   0  0  0  0  0  0  0  0  0  0  0  0
   -5.1050    5.3360  -19.4930 C   0  0  0  0  0  0  0  0  0  0  0  0
   -5.1370    6.6990  -20.2150 C   0  0  0  0  0  0  0  0  0  0  0  0
   -3.5980    5.2940  -19.8290 C   0  0  0  0  0  0  0  0  0  0  0  0
   -3.8880    6.2820  -20.8940 N   0  0  0  0  0  0  0  0  0  0  0  0
   -8.9920    4.5860  -16.0310 C   0  0  0  0  0  0  0  0  0  0  0  0
   -7.7970    4.9530  -15.3970 C   0  0  0  0  0  0  0  0  0  0  0  0
   -7.7430    5.1730  -13.9050 C   0  0  0  0  0  0  0  0  0  0  0  0
   -7.0830    6.1040  -13.4430 O   0  0  0  0  0  0  0  0  0  0  0  0
   -8.4260    4.2880  -13.1220 N   0  0  0  0  0  0  0  0  0  0  0  0
   -8.5150    4.3120  -11.6960 C   0  0  0  0  0  0  0  0  0  0  0  0
   -8.6670    3.1440  -10.9520 C   0  0  0  0  0  0  0  0  0  0  0  0
   -8.7470    3.1790   -9.5560 C   0  0  0  0  0  0  0  0  0  0  0  0
   -8.9500    1.8920   -8.7920 C   0  0  0  0  0  0  0  0  0  0  0  0
   -9.3860    2.1020   -7.3580 C   0  0  0  0  0  0  0  0  0  0  0  0
   -8.5440    3.1740   -6.6860 C   0  0  0  0  0  0  0  0  0  0  0  0
   -8.7320    4.5120   -7.3860 C   0  0  0  0  0  0  0  0  0  0  0  0
   -8.6500    4.4160   -8.8920 C   0  0  0  0  0  0  0  0  0  0  0  0
   -8.4930    5.5750   -9.6460 C   0  0  0  0  0  0  0  0  0  0  0  0
   -8.4370    5.5300  -11.0290 C   0  0  0  0  0  0  0  0  0  0  0  0
 12 10  1  0
 10  9  1  0
  9  8  1  0
  8  7  1  0
  7  6  2  0
  6  5  1  0
  5 14  2  0
 15 14  1  0
 16 15  2  0
 17 15  1  0
 18 17  1  0
 18 27  2  0
 27 26  1  0
 26 25  2  0
 25 20  1  0
 20 19  2  0
 19 18  1  0
 21 20  1  0
 22 21  1  0
 23 22  1  0
 24 23  1  0
 25 24  1  0
 14 13  1  0
 13  2  2  0
  2  1  1  0
  3  2  1  0
  4  3  2  0
  5  4  1  0
  8  4  1  0
 11  9  1  0
 12 11  1  0
M  END
$$$$
