XX01ZVNS2B-x0788_B_301_1_XX01ZVNS2B-x4590+B+203+1__LIG
     RDKit          3D

 15 16  0  0  0  0  0  0  0  0999 V2000
   -3.9800    4.3290  -16.4180 O   0  0  0  0  0  0  0  0  0  0  0  0
   -3.2600    5.1500  -17.3500 S   0  0  0  0  0  0  0  0  0  0  0  0
   -2.1020    5.8550  -16.8800 O   0  0  0  0  0  0  0  0  0  0  0  0
   -2.7940    4.1700  -18.7280 C   0  0  0  0  0  0  0  0  0  0  0  0
   -4.3960    6.3680  -17.9730 C   0  0  0  0  0  0  0  0  0  0  0  0
   -5.6970    6.2100  -18.3750 N   0  0  0  0  0  0  0  0  0  0  0  0
   -6.1090    7.4250  -18.8710 C   0  0  0  0  0  0  0  0  0  0  0  0
   -5.0540    8.2600  -18.7380 C   0  0  0  0  0  0  0  0  0  0  0  0
   -3.9850    7.6060  -18.1730 N   0  0  0  0  0  0  0  0  0  0  0  0
   -6.2860    4.9200  -18.7160 C   0  0  0  0  0  0  0  0  0  0  0  0
   -7.6280    4.7210  -18.0840 C   0  0  0  0  0  0  0  0  0  0  0  0
   -7.7680    4.6520  -16.7070 N   0  0  0  0  0  0  0  0  0  0  0  0
   -9.0010    4.3690  -16.4130 C   0  0  0  0  0  0  0  0  0  0  0  0
  -10.0620    4.2030  -17.7430 S   0  0  0  0  0  0  0  0  0  0  0  0
   -8.7620    4.5130  -18.7870 C   0  0  0  0  0  0  0  0  0  0  0  0
  4  2  1  0
  3  2  2  0
  2  1  2  0
  5  2  1  0
  5  9  2  0
  9  8  1  0
  8  7  2  0
  7  6  1  0
  6  5  1  0
 10  6  1  0
 11 10  1  0
 11 15  2  0
 15 14  1  0
 14 13  1  0
 13 12  2  0
 12 11  1  0
M  END
$$$$
