XX01ZVNS2B-x3452_B_203_1_XX01ZVNS2B-x4590+B+203+1__LIG
     RDKit          3D

 22 25  0  0  0  0  0  0  0  0999 V2000
   -6.7350    5.4690  -13.3770 O   0  0  0  0  0  0  0  0  0  0  0  0
   -7.5840    4.7080  -13.8370 C   0  0  0  0  0  0  0  0  0  0  0  0
   -8.3680    3.9240  -13.0590 N   0  0  0  0  0  0  0  0  0  0  0  0
   -8.4800    3.9640  -11.6400 C   0  0  0  0  0  0  0  0  0  0  0  0
   -8.2220    5.1430  -10.9420 C   0  0  0  0  0  0  0  0  0  0  0  0
   -8.3020    5.1730   -9.5590 C   0  0  0  0  0  0  0  0  0  0  0  0
   -8.5870    3.9960   -8.8770 C   0  0  0  0  0  0  0  0  0  0  0  0
   -8.8500    2.8210   -9.5660 C   0  0  0  0  0  0  0  0  0  0  0  0
   -8.7700    2.7800  -10.9510 C   0  0  0  0  0  0  0  0  0  0  0  0
   -9.1820    1.7310   -8.5860 C   0  0  0  0  0  0  0  0  0  0  0  0
   -8.6680    2.2970   -7.3320 N   0  0  0  0  0  0  0  0  0  0  0  0
   -8.7790    3.7600   -7.4050 C   0  0  0  0  0  0  0  0  0  0  0  0
   -7.7510    4.5900  -15.3240 C   0  0  0  0  0  0  0  0  0  0  0  0
   -8.9490    4.1630  -15.8890 C   0  0  0  0  0  0  0  0  0  0  0  0
   -9.0920    4.1060  -17.2610 C   0  0  0  0  0  0  0  0  0  0  0  0
  -10.2880    3.7280  -17.7950 F   0  0  0  0  0  0  0  0  0  0  0  0
   -8.0700    4.3850  -18.1300 C   0  0  0  0  0  0  0  0  0  0  0  0
   -6.8640    4.8000  -17.5850 C   0  0  0  0  0  0  0  0  0  0  0  0
   -5.6600    5.1390  -18.1030 N   0  0  0  0  0  0  0  0  0  0  0  0
   -4.7920    5.4360  -17.1290 N   0  0  0  0  0  0  0  0  0  0  0  0
   -5.3910    5.2850  -15.9750 N   0  0  0  0  0  0  0  0  0  0  0  0
   -6.6950    4.9010  -16.2010 C   0  0  0  0  0  0  0  0  0  0  0  0
  1  2  2  0
  2  3  1  0
  3  4  1  0
  4  5  2  0
  5  6  1  0
  6  7  2  0
  7  8  1  0
  8  9  2  0
  8 10  1  0
 10 11  1  0
 11 12  1  0
  2 13  1  0
 13 14  2  0
 14 15  1  0
 15 16  1  0
 15 17  2  0
 17 18  1  0
 18 19  1  0
 19 20  1  0
 20 21  2  0
 21 22  1  0
  4  9  1  0
 13 22  1  0
  7 12  1  0
 18 22  2  0
M  END
$$$$
