A71EV2A-x4426_A_201_3_A71EV2A-x0911+A+147+1__LIG
     RDKit          3D

 21 23  0  0  0  0  0  0  0  0999 V2000
   10.6380   14.9590   25.6980 C   0  0  0  0  0  0  0  0  0  0  0  0
   10.7540   14.0730   24.9180 C   0  0  0  0  0  0  0  0  0  0  0  0
   10.9830   13.0090   23.9230 C   0  0  1  0  0  0  0  0  0  0  0  0
   10.0060   11.8580   24.0140 C   0  0  0  0  0  0  0  0  0  0  0  0
    8.8370   11.7100   24.8750 C   0  0  0  0  0  0  0  0  0  0  0  0
    8.1050   12.5020   25.7560 C   0  0  0  0  0  0  0  0  0  0  0  0
    7.0060   11.9670   26.4150 C   0  0  0  0  0  0  0  0  0  0  0  0
    6.6310   10.6450   26.2130 C   0  0  0  0  0  0  0  0  0  0  0  0
    7.3420    9.8320   25.3440 C   0  0  0  0  0  0  0  0  0  0  0  0
    8.4320   10.3820   24.6760 C   0  0  0  0  0  0  0  0  0  0  0  0
    9.2980    9.8520   23.7690 N   0  0  0  0  0  0  0  0  0  0  0  0
    9.3800    8.4760   23.3010 C   0  0  0  0  0  0  0  0  0  0  0  0
   10.2310   10.7650   23.3600 N   0  0  0  0  0  0  0  0  0  0  0  0
   10.9880   13.5430   22.5630 N   0  0  0  0  0  0  0  0  0  0  0  0
   12.1400   14.4030   22.2700 C   0  0  0  0  0  0  0  0  0  0  0  0
   12.2580   14.6640   20.7790 C   0  0  0  0  0  0  0  0  0  0  0  0
   11.0810   15.4140   20.2430 C   0  0  0  0  0  0  0  0  0  0  0  0
   10.5700   15.1590   18.9840 N   0  0  0  0  0  0  0  0  0  0  0  0
    9.6000   15.9900   18.8680 C   0  0  0  0  0  0  0  0  0  0  0  0
    9.3980   16.8000   19.9260 O   0  0  0  0  0  0  0  0  0  0  0  0
   10.3700   16.4040   20.8010 C   0  0  0  0  0  0  0  0  0  0  0  0
  2  1  3  0
  3  2  1  1
 14  3  1  0
 15 14  1  0
 16 15  1  0
 17 16  1  0
 17 21  2  0
 21 20  1  0
 20 19  1  0
 19 18  2  0
 18 17  1  0
  4  3  1  0
  4 13  2  0
 13 11  1  0
 12 11  1  0
 11 10  1  0
 10  9  1  0
  9  8  2  0
  8  7  1  0
  7  6  2  0
  6  5  1  0
  5  4  1  0
 10  5  2  0
M  END
$$$$
