A71EV2A-x4451_A_201_1_A71EV2A-x0911+A+147+1__LIG
     RDKit          3D

 23 25  0  0  0  0  0  0  0  0999 V2000
    7.8130   13.2640   22.7780 O   0  0  0  0  0  0  0  0  0  0  0  0
    8.6550   13.8390   23.4410 C   0  0  0  0  0  0  0  0  0  0  0  0
    9.3670   14.8680   22.9540 N   0  0  0  0  0  0  0  0  0  0  0  0
   10.3730   15.6160   23.7210 C   0  0  0  0  0  0  0  0  0  0  0  0
   11.7440   15.4310   23.1020 C   0  0  0  0  0  0  0  0  0  0  0  0
   11.7030   15.8430   21.6350 C   0  0  0  0  0  0  0  0  0  0  0  0
    9.2750   15.2480   21.5430 C   0  0  0  0  0  0  0  0  0  0  0  0
   10.6330   15.0570   20.8700 C   0  0  1  0  0  0  0  0  0  0  0  0
   10.5090   15.5360   19.4350 C   0  0  0  0  0  0  0  0  0  0  0  0
   10.1500   16.6920   19.1760 O   0  0  0  0  0  0  0  0  0  0  0  0
   10.7550   14.6200   18.4990 N   0  0  0  0  0  0  0  0  0  0  0  0
    8.9530   13.3850   24.8790 C   0  0  1  0  0  0  0  0  0  0  0  0
    8.1900   14.1590   25.8740 N   0  0  0  0  0  0  0  0  0  0  0  0
    8.8180   14.5820   27.0020 N   0  0  0  0  0  0  0  0  0  0  0  0
    7.8800   15.2560   27.6610 C   0  0  0  0  0  0  0  0  0  0  0  0
    6.6700   15.2770   26.9720 C   0  0  0  0  0  0  0  0  0  0  0  0
    6.9030   14.5590   25.8300 C   0  0  0  0  0  0  0  0  0  0  0  0
    8.7750   11.8980   25.0340 C   0  0  0  0  0  0  0  0  0  0  0  0
    9.7200   11.0310   24.5170 C   0  0  0  0  0  0  0  0  0  0  0  0
    9.4540    9.6830   24.4170 C   0  0  0  0  0  0  0  0  0  0  0  0
    8.2610    9.1920   24.8400 C   0  0  0  0  0  0  0  0  0  0  0  0
    7.3340   10.0300   25.4000 C   0  0  0  0  0  0  0  0  0  0  0  0
    7.5860   11.3780   25.4960 C   0  0  0  0  0  0  0  0  0  0  0  0
 11  9  1  0
 10  9  2  0
  8  9  1  6
  8  6  1  0
  6  5  1  0
  5  4  1  0
  4  3  1  0
  3  2  1  0
  2  1  2  0
 12  2  1  0
 18 12  1  0
 18 23  2  0
 23 22  1  0
 22 21  2  0
 21 20  1  0
 20 19  2  0
 19 18  1  0
 12 13  1  1
 13 17  1  0
 17 16  2  0
 16 15  1  0
 15 14  2  0
 14 13  1  0
  7  3  1  0
  8  7  1  0
M  END
$$$$
