A71EV2A-x5289_C_201_2_A71EV2A-x0911+A+147+1__LIG
     RDKit          3D

 24 25  0  0  0  0  0  0  0  0999 V2000
   10.3230   16.7300   19.2370 O   0  0  0  0  0  0  0  0  0  0  0  0
   10.7050   15.5690   19.4380 C   0  0  0  0  0  0  0  0  0  0  0  0
   10.9550   14.6990   18.4640 N   0  0  0  0  0  0  0  0  0  0  0  0
   10.8160   15.0260   20.8480 C   0  0  1  0  0  0  0  0  0  0  0  0
   11.8870   15.7860   21.6500 C   0  0  0  0  0  0  0  0  0  0  0  0
   11.9220   15.2930   23.1080 C   0  0  0  0  0  0  0  0  0  0  0  0
   10.5370   15.3930   23.7280 C   0  0  0  0  0  0  0  0  0  0  0  0
    9.4520   15.1810   21.5320 C   0  0  0  0  0  0  0  0  0  0  0  0
    9.5550   14.6760   22.9030 N   0  0  0  0  0  0  0  0  0  0  0  0
    8.7470   13.6460   23.3140 C   0  0  0  0  0  0  0  0  0  0  0  0
    7.8110   13.2580   22.6300 O   0  0  0  0  0  0  0  0  0  0  0  0
    9.0810   13.0580   24.4990 N   0  0  0  0  0  0  0  0  0  0  0  0
    8.1950   12.0670   25.0320 C   0  0  0  0  0  0  0  0  0  0  0  0
    8.3380   10.7250   24.6920 C   0  0  0  0  0  0  0  0  0  0  0  0
    9.3320   10.4550   23.7950 O   0  0  0  0  0  0  0  0  0  0  0  0
    9.5930    9.0800   23.5020 C   0  0  0  0  0  0  0  0  0  0  0  0
    7.2110   12.4490   25.9500 C   0  0  0  0  0  0  0  0  0  0  0  0
    7.0900   14.1810   26.2950 S   0  0  0  0  0  0  0  0  0  0  0  0
    5.6200   14.2910   27.3770 C   0  0  0  0  0  0  0  0  0  0  0  0
    5.1660   15.7210   27.1760 C   0  0  0  0  0  0  0  0  0  0  0  0
    6.0950   14.0410   28.7930 C   0  0  0  0  0  0  0  0  0  0  0  0
    6.3920   11.4880   26.5370 C   0  0  0  0  0  0  0  0  0  0  0  0
    6.5610   10.1540   26.2090 C   0  0  0  0  0  0  0  0  0  0  0  0
    7.5230    9.7640   25.2860 C   0  0  0  0  0  0  0  0  0  0  0  0
 16 15  1  0
 15 14  1  0
 14 24  2  0
 24 23  1  0
 23 22  2  0
 22 17  1  0
 18 17  1  0
 19 18  1  0
 21 19  1  0
 20 19  1  0
 17 13  2  0
 14 13  1  0
 13 12  1  0
 12 10  1  0
 11 10  2  0
 10  9  1  0
  9  7  1  0
  7  6  1  0
  6  5  1  0
  5  4  1  0
  4  2  1  6
  3  2  1  0
  2  1  2  0
  8  4  1  0
  9  8  1  0
M  END
$$$$
