A71EV2A-x4467_A_201_3_A71EV2A-x0911+A+147+1__LIG
     RDKit          3D

 21 23  0  0  0  0  0  0  0  0999 V2000
    7.2040   13.0360   22.5250 O   0  0  0  0  0  0  0  0  0  0  0  0
    7.9360   13.6260   23.2850 C   0  0  0  0  0  0  0  0  0  0  0  0
    8.8820   14.4770   22.8420 N   0  0  0  0  0  0  0  0  0  0  0  0
   10.0130   14.9470   23.6580 C   0  0  0  0  0  0  0  0  0  0  0  0
   11.3660   14.6840   23.0510 C   0  0  0  0  0  0  0  0  0  0  0  0
   11.4170   15.1480   21.6280 C   0  0  0  0  0  0  0  0  0  0  0  0
    8.8800   15.1310   21.5410 C   0  0  0  0  0  0  0  0  0  0  0  0
   10.1690   14.7380   20.8320 C   0  0  1  0  0  0  0  0  0  0  0  0
   10.1880   15.2770   19.4120 C   0  0  0  0  0  0  0  0  0  0  0  0
    9.8420   16.4040   19.1350 O   0  0  0  0  0  0  0  0  0  0  0  0
   10.3610   14.3810   18.4990 N   0  0  0  0  0  0  0  0  0  0  0  0
    7.7220   13.4110   24.8180 C   0  0  0  0  0  0  0  0  0  0  0  0
    8.3540   14.1710   25.9900 C   0  0  0  0  0  0  0  0  0  0  0  0
    7.2710   14.3390   27.0700 C   0  0  0  0  0  0  0  0  0  0  0  0
    6.0110   13.6290   26.6020 C   0  0  0  0  0  0  0  0  0  0  0  0
    6.1980   13.4350   25.0570 C   0  0  0  0  0  0  0  0  0  0  0  0
    8.3560   12.0540   24.9500 N   0  0  0  0  0  0  0  0  0  0  0  0
    9.6710   11.7350   25.0570 N   0  0  0  0  0  0  0  0  0  0  0  0
    9.6730   10.4190   25.0970 C   0  0  0  0  0  0  0  0  0  0  0  0
    8.3890    9.8950   25.0510 C   0  0  0  0  0  0  0  0  0  0  0  0
    7.5750   10.9570   24.9100 C   0  0  0  0  0  0  0  0  0  0  0  0
 11  9  1  0
 10  9  2  0
  8  9  1  6
  8  6  1  0
  6  5  1  0
  5  4  1  0
  4  3  1  0
  3  2  1  0
  2  1  2  0
 12  2  1  0
 17 12  1  0
 17 21  1  0
 21 20  2  0
 20 19  1  0
 19 18  2  0
 18 17  1  0
 12 16  1  0
 16 15  1  0
 15 14  1  0
 14 13  1  0
 13 12  1  0
  7  3  1  0
  8  7  1  0
M  END
$$$$
