XX01ZVNS2B-x0727_B_301_1_XX01ZVNS2B-x4590+B+203+1__LIG
     RDKit          3D

 12 13  0  0  0  0  0  0  0  0999 V2000
   -3.1970    5.0240  -15.3030 C   0  0  0  0  0  0  0  0  0  0  0  0
   -4.6070    5.2200  -15.5700 N   0  0  0  0  0  0  0  0  0  0  0  0
   -5.1500    5.1080  -16.8010 C   0  0  0  0  0  0  0  0  0  0  0  0
   -6.5610    4.8380  -16.9390 C   0  0  0  0  0  0  0  0  0  0  0  0
   -7.0780    4.7340  -18.2600 C   0  0  0  0  0  0  0  0  0  0  0  0
   -6.1930    4.8980  -19.3470 C   0  0  0  0  0  0  0  0  0  0  0  0
   -4.8830    5.1530  -19.1030 C   0  0  0  0  0  0  0  0  0  0  0  0
   -4.3570    5.2580  -17.8720 N   0  0  0  0  0  0  0  0  0  0  0  0
   -7.4620    4.6670  -15.8580 C   0  0  0  0  0  0  0  0  0  0  0  0
   -8.7860    4.4200  -16.0760 C   0  0  0  0  0  0  0  0  0  0  0  0
   -9.2830    4.3250  -17.3650 C   0  0  0  0  0  0  0  0  0  0  0  0
   -8.4570    4.4730  -18.4380 C   0  0  0  0  0  0  0  0  0  0  0  0
  2  1  1  0
  3  2  1  0
  3  8  2  0
  8  7  1  0
  7  6  2  0
  6  5  1  0
  5 12  2  0
 12 11  1  0
 11 10  2  0
 10  9  1  0
  9  4  2  0
  4  3  1  0
  5  4  1  0
M  END
$$$$
