A71EV2A-x4711_A_201_1_A71EV2A-x0911+A+147+1__LIG
     RDKit          3D

 19 20  0  0  0  0  0  0  0  0999 V2000
   11.1220   14.7520   25.1150 O   0  0  0  0  0  0  0  0  0  0  0  0
   11.0750   14.8840   23.8970 C   0  0  0  0  0  0  0  0  0  0  0  0
   12.2960   15.3370   23.1460 C   0  0  0  0  0  0  0  0  0  0  0  0
   12.0160   15.8910   21.7480 C   0  0  0  0  0  0  0  0  0  0  0  0
   11.0540   14.9720   20.9860 C   0  0  2  0  0  0  0  0  0  0  0  0
   10.8240   15.4800   19.5750 C   0  0  0  0  0  0  0  0  0  0  0  0
   10.4490   16.6400   19.3680 O   0  0  0  0  0  0  0  0  0  0  0  0
   11.0410   14.6090   18.6000 N   0  0  0  0  0  0  0  0  0  0  0  0
    9.7300   14.9310   21.7640 C   0  0  0  0  0  0  0  0  0  0  0  0
    9.9370   14.6800   23.1970 N   0  0  0  0  0  0  0  0  0  0  0  0
    8.7100   14.2960   23.9000 C   0  0  0  0  0  0  0  0  0  0  0  0
    8.5160   12.8050   24.0550 C   0  0  0  0  0  0  0  0  0  0  0  0
    9.3480   11.8970   23.4150 C   0  0  0  0  0  0  0  0  0  0  0  0
    9.1730   10.5340   23.5870 C   0  0  0  0  0  0  0  0  0  0  0  0
    8.1590   10.0590   24.4020 C   0  0  0  0  0  0  0  0  0  0  0  0
    7.4950   12.3220   24.8700 C   0  0  0  0  0  0  0  0  0  0  0  0
    7.3110   10.9520   25.0400 C   0  0  0  0  0  0  0  0  0  0  0  0
    5.9960   10.3300   26.0450 S   0  0  0  0  0  0  0  0  0  0  0  0
    5.3070   11.7990   26.8080 C   0  0  0  0  0  0  0  0  0  0  0  0
 19 18  1  0
 18 17  1  0
 17 15  2  0
 15 14  1  0
 14 13  2  0
 13 12  1  0
 12 11  1  0
 11 10  1  0
 10  9  1  0
  9  5  1  0
  5  6  1  6
  8  6  1  0
  7  6  2  0
  5  4  1  0
  4  3  1  0
  3  2  1  0
 10  2  1  0
  2  1  2  0
 16 12  2  0
 17 16  1  0
M  END
$$$$
