XX01ZVNS2B-x5003_B_203_5_XX01ZVNS2B-x4590+B+203+1__LIG
     RDKit          3D

 26 30  0  0  0  0  0  0  0  0999 V2000
   -9.7500    3.6860  -18.0000 Cl  0  0  0  0  0  0  0  0  0  0  0  0
   -8.4030    4.2120  -17.0420 C   0  0  0  0  0  0  0  0  0  0  0  0
   -8.4890    4.1990  -15.6570 C   0  0  0  0  0  0  0  0  0  0  0  0
   -7.2350    4.6340  -17.6790 C   0  0  0  0  0  0  0  0  0  0  0  0
   -6.1260    5.0360  -16.9110 C   0  0  0  0  0  0  0  0  0  0  0  0
   -5.0870    5.3980  -17.8380 C   0  0  0  0  0  0  0  0  0  0  0  0
   -3.7270    5.9180  -17.4660 C   0  0  0  0  0  0  0  0  0  0  0  0
   -2.5790    4.8860  -17.5780 C   0  0  0  0  0  0  0  0  0  0  0  0
   -1.9630    5.7150  -18.6400 N   0  0  0  0  0  0  0  0  0  0  0  0
   -3.0140    6.7590  -18.5540 C   0  0  0  0  0  0  0  0  0  0  0  0
   -5.6040    5.2110  -19.0880 C   0  0  0  0  0  0  0  0  0  0  0  0
   -6.8920    4.7510  -19.0050 N   0  0  0  0  0  0  0  0  0  0  0  0
   -6.2150    5.0110  -15.5160 C   0  0  0  0  0  0  0  0  0  0  0  0
   -7.3970    4.6080  -14.8880 C   0  0  0  0  0  0  0  0  0  0  0  0
   -7.3800    4.7010  -13.3900 C   0  0  0  0  0  0  0  0  0  0  0  0
   -6.5510    5.4030  -12.8120 O   0  0  0  0  0  0  0  0  0  0  0  0
   -8.2990    3.9640  -12.7260 N   0  0  0  0  0  0  0  0  0  0  0  0
   -8.4540    3.9240  -11.3030 C   0  0  0  0  0  0  0  0  0  0  0  0
   -8.6580    2.7110  -10.6450 C   0  0  0  0  0  0  0  0  0  0  0  0
   -8.7350    2.6680   -9.2500 C   0  0  0  0  0  0  0  0  0  0  0  0
   -9.0260    1.5120   -8.3390 C   0  0  0  0  0  0  0  0  0  0  0  0
   -8.7010    2.0680   -7.0090 N   0  0  0  0  0  0  0  0  0  0  0  0
   -8.7010    3.5430   -7.0430 C   0  0  0  0  0  0  0  0  0  0  0  0
   -8.5930    3.8380   -8.5120 C   0  0  0  0  0  0  0  0  0  0  0  0
   -8.4090    5.0530   -9.1680 C   0  0  0  0  0  0  0  0  0  0  0  0
   -8.3410    5.0970  -10.5550 C   0  0  0  0  0  0  0  0  0  0  0  0
 16 15  2  0
 17 15  1  0
 18 17  1  0
 18 26  2  0
 26 25  1  0
 25 24  2  0
 24 20  1  0
 20 19  2  0
 19 18  1  0
 21 20  1  0
 22 21  1  0
 23 22  1  0
 24 23  1  0
 15 14  1  0
 14  3  1  0
  3  2  2  0
  2  1  1  0
  4  2  1  0
  4 12  1  0
 12 11  1  0
 11  6  2  0
  7  6  1  0
  7 10  1  0
 10  9  1  0
  9  8  1  0
  8  7  1  0
  6  5  1  0
  5  4  2  0
 13  5  1  0
 14 13  2  0
M  END
$$$$
