A71EV2A-x4403_A_201_1_A71EV2A-x0911+A+147+1__LIG
     RDKit          3D

 23 24  0  0  0  0  0  0  0  0999 V2000
    9.6760   15.4380   26.6620 O   0  0  0  0  0  0  0  0  0  0  0  0
    8.3260   15.6480   27.0830 S   0  0  0  0  0  0  0  0  0  0  0  0
    7.8850   15.1230   28.3380 O   0  0  0  0  0  0  0  0  0  0  0  0
    8.0200   17.2240   27.0570 N   0  0  0  0  0  0  0  0  0  0  0  0
    7.2430   15.0230   25.8060 C   0  0  0  0  0  0  0  0  0  0  0  0
    6.8860   13.5720   26.0040 C   0  0  0  0  0  0  0  0  0  0  0  0
    5.8070   13.2660   26.8340 C   0  0  0  0  0  0  0  0  0  0  0  0
    5.4870   11.9520   27.1200 C   0  0  0  0  0  0  0  0  0  0  0  0
    6.2250   10.9270   26.5720 C   0  0  0  0  0  0  0  0  0  0  0  0
    7.2830   11.2080   25.7240 C   0  0  0  0  0  0  0  0  0  0  0  0
    7.6350   12.5250   25.4340 C   0  0  0  0  0  0  0  0  0  0  0  0
    8.8460   12.7790   24.5640 C   0  0  0  0  0  0  0  0  0  0  0  0
    8.5050   13.5170   23.2820 C   0  0  0  0  0  0  0  0  0  0  0  0
    7.5300   13.2140   22.6130 O   0  0  0  0  0  0  0  0  0  0  0  0
    9.3320   14.5260   22.9250 N   0  0  0  0  0  0  0  0  0  0  0  0
   10.4490   15.0350   23.7350 C   0  0  0  0  0  0  0  0  0  0  0  0
   11.7750   14.8020   23.0190 C   0  0  0  0  0  0  0  0  0  0  0  0
   11.7380   15.3790   21.6010 C   0  0  0  0  0  0  0  0  0  0  0  0
    9.2360   15.1610   21.6080 C   0  0  0  0  0  0  0  0  0  0  0  0
   10.5140   14.8740   20.8160 C   0  0  1  0  0  0  0  0  0  0  0  0
   10.4810   15.4420   19.4070 C   0  0  0  0  0  0  0  0  0  0  0  0
   10.0540   16.5780   19.1900 O   0  0  0  0  0  0  0  0  0  0  0  0
   10.9280   14.6390   18.4500 N   0  0  0  0  0  0  0  0  0  0  0  0
 23 21  1  0
 22 21  2  0
 20 21  1  6
 20 18  1  0
 18 17  1  0
 17 16  1  0
 16 15  1  0
 15 13  1  0
 14 13  2  0
 13 12  1  0
 12 11  1  0
 11 10  2  0
 10  9  1  0
  9  8  2  0
  8  7  1  0
  7  6  2  0
 11  6  1  0
  6  5  1  0
  5  2  1  0
  4  2  1  0
  3  2  2  0
  2  1  2  0
 19 15  1  0
 20 19  1  0
M  END
$$$$
