XX01ZVNS2B-x0846_B_301_1_XX01ZVNS2B-x0846+B+301+1__LIG
     RDKit          3D

 18 20  0  0  0  0  0  0  0  0999 V2000
  -13.1790    9.9540  -12.1710 O   0  0  0  0  0  0  0  0  0  0  0  0
  -11.9900    9.3010  -12.1620 C   0  0  0  0  0  0  0  0  0  0  0  0
  -11.1360    9.4140  -11.0590 C   0  0  0  0  0  0  0  0  0  0  0  0
   -9.8960    8.7790  -11.1170 C   0  0  0  0  0  0  0  0  0  0  0  0
   -9.5210    8.0410  -12.2310 C   0  0  0  0  0  0  0  0  0  0  0  0
  -10.3830    7.9170  -13.3010 C   0  0  0  0  0  0  0  0  0  0  0  0
  -11.6150    8.5470  -13.2730 C   0  0  0  0  0  0  0  0  0  0  0  0
  -11.5600   10.2080   -9.8410 C   0  0  0  0  0  0  0  0  0  0  0  0
  -11.5650   11.6500  -10.0610 N   0  0  0  0  0  0  0  0  0  0  0  0
  -12.6150   12.4400   -9.8010 C   0  0  0  0  0  0  0  0  0  0  0  0
  -12.4780   13.7860   -9.7440 N   0  0  0  0  0  0  0  0  0  0  0  0
  -13.7360   14.3140   -9.5180 C   0  0  0  0  0  0  0  0  0  0  0  0
  -14.5970   13.2200   -9.4580 C   0  0  0  0  0  0  0  0  0  0  0  0
  -13.8690   12.0400   -9.6260 N   0  0  0  0  0  0  0  0  0  0  0  0
  -14.1920   15.6160   -9.3670 C   0  0  0  0  0  0  0  0  0  0  0  0
  -15.5510   15.8140   -9.1580 C   0  0  0  0  0  0  0  0  0  0  0  0
  -16.4290   14.7310   -9.1230 C   0  0  0  0  0  0  0  0  0  0  0  0
  -15.9630   13.4290   -9.2730 C   0  0  0  0  0  0  0  0  0  0  0  0
  2  1  1  0
  2  7  2  0
  7  6  1  0
  6  5  2  0
  5  4  1  0
  4  3  2  0
  3  2  1  0
  8  3  1  0
  9  8  1  0
 10  9  1  0
 10 14  2  0
 14 13  1  0
 13 18  2  0
 18 17  1  0
 17 16  2  0
 16 15  1  0
 15 12  2  0
 13 12  1  0
 12 11  1  0
 11 10  1  0
M  END
$$$$
