A71EV2A-x4031_A_201_1_A71EV2A-x0911+A+147+1__LIG
     RDKit          3D

 20 21  0  0  0  0  0  0  0  0999 V2000
   10.2610   16.6270   19.3130 O   0  0  0  0  0  0  0  0  0  0  0  0
   10.6380   15.4660   19.5340 C   0  0  0  0  0  0  0  0  0  0  0  0
   10.9770   14.6170   18.5600 N   0  0  0  0  0  0  0  0  0  0  0  0
   10.6700   14.8990   20.9430 C   0  0  1  0  0  0  0  0  0  0  0  0
   11.8190   15.4940   21.7830 C   0  0  0  0  0  0  0  0  0  0  0  0
   11.8460   14.8490   23.1700 C   0  0  0  0  0  0  0  0  0  0  0  0
   10.4920   14.9970   23.8690 C   0  0  0  0  0  0  0  0  0  0  0  0
    9.3370   15.1350   21.6590 C   0  0  0  0  0  0  0  0  0  0  0  0
    9.3760   14.5540   23.0080 N   0  0  0  0  0  0  0  0  0  0  0  0
    8.4990   13.5640   23.3470 C   0  0  0  0  0  0  0  0  0  0  0  0
    7.7030   13.1140   22.5320 O   0  0  0  0  0  0  0  0  0  0  0  0
    8.5540   13.1230   24.6390 N   0  0  0  0  0  0  0  0  0  0  0  0
    7.7350   12.0670   25.1180 C   0  0  0  0  0  0  0  0  0  0  0  0
    7.9400   10.7280   24.6200 C   0  0  0  0  0  0  0  0  0  0  0  0
    8.9470   10.5690   23.7400 O   0  0  0  0  0  0  0  0  0  0  0  0
    9.2530    9.2240   23.3180 C   0  0  0  0  0  0  0  0  0  0  0  0
    6.7440   12.2540   26.0870 C   0  0  0  0  0  0  0  0  0  0  0  0
    6.0080   11.1550   26.5110 C   0  0  0  0  0  0  0  0  0  0  0  0
    6.2660    9.9240   25.9460 C   0  0  0  0  0  0  0  0  0  0  0  0
    7.2350    9.6910   25.0330 N   0  0  0  0  0  0  0  0  0  0  0  0
 16 15  1  0
 15 14  1  0
 14 20  2  0
 20 19  1  0
 19 18  2  0
 18 17  1  0
 17 13  2  0
 14 13  1  0
 13 12  1  0
 12 10  1  0
 11 10  2  0
 10  9  1  0
  9  7  1  0
  7  6  1  0
  6  5  1  0
  5  4  1  0
  4  2  1  6
  3  2  1  0
  2  1  2  0
  8  4  1  0
  9  8  1  0
M  END
$$$$
