A71EV2A-x4611_A_201_1_A71EV2A-x0911+A+147+1__LIG
     RDKit          3D

 20 22  0  0  0  0  0  0  0  0999 V2000
   10.5680   14.8480   25.1900 O   0  0  0  0  0  0  0  0  0  0  0  0
   10.5830   14.9260   23.9680 C   0  0  0  0  0  0  0  0  0  0  0  0
   11.8950   15.0950   23.2490 C   0  0  0  0  0  0  0  0  0  0  0  0
   11.7730   15.6760   21.8400 C   0  0  0  0  0  0  0  0  0  0  0  0
    9.4410   14.9420   23.2230 N   0  0  0  0  0  0  0  0  0  0  0  0
    9.3320   15.0940   21.7660 C   0  0  0  0  0  0  0  0  0  0  0  0
   10.6840   14.9280   21.0540 C   0  0  1  0  0  0  0  0  0  0  0  0
   10.5940   15.4360   19.6240 C   0  0  0  0  0  0  0  0  0  0  0  0
   10.2530   16.5920   19.3810 O   0  0  0  0  0  0  0  0  0  0  0  0
   10.9220   14.5720   18.6760 N   0  0  0  0  0  0  0  0  0  0  0  0
    8.1600   15.0080   23.9100 C   0  0  0  0  0  0  0  0  0  0  0  0
    7.7030   13.7290   24.5560 C   0  0  0  0  0  0  0  0  0  0  0  0
    8.0730   12.3940   24.1030 C   0  0  0  0  0  0  0  0  0  0  0  0
    7.2750   11.5620   24.8720 C   0  0  0  0  0  0  0  0  0  0  0  0
    6.5100   12.2950   25.7190 O   0  0  0  0  0  0  0  0  0  0  0  0
    6.8220   13.6810   25.4940 N   0  0  0  0  0  0  0  0  0  0  0  0
    9.0360   11.8120   23.2830 C   0  0  0  0  0  0  0  0  0  0  0  0
    9.1510   10.4300   23.2360 C   0  0  0  0  0  0  0  0  0  0  0  0
    8.3060    9.6240   23.9800 C   0  0  0  0  0  0  0  0  0  0  0  0
    7.3520   10.1830   24.8170 C   0  0  0  0  0  0  0  0  0  0  0  0
 10  8  1  0
  9  8  2  0
  7  8  1  6
  7  4  1  0
  4  3  1  0
  3  2  1  0
  2  1  2  0
  5  2  1  0
 11  5  1  0
 12 11  1  0
 12 16  2  0
 16 15  1  0
 15 14  1  0
 14 20  2  0
 20 19  1  0
 19 18  2  0
 18 17  1  0
 17 13  2  0
 13 12  1  0
 14 13  1  0
  6  5  1  0
  7  6  1  0
M  END
$$$$
