A71EV2A-x1445_B_201_1_A71EV2A-x0911+A+147+1__LIG
     RDKit          3D

 18 18  0  0  0  0  0  0  0  0999 V2000
    0.9940   11.4570   29.1410 F   0  0  0  0  0  0  0  0  0  0  0  0
    1.7660   10.5610   29.7610 C   0  0  0  0  0  0  0  0  0  0  0  0
    1.4840   10.6480   31.0600 F   0  0  0  0  0  0  0  0  0  0  0  0
    1.3480    9.3610   29.3610 F   0  0  0  0  0  0  0  0  0  0  0  0
    3.2300   10.7820   29.4780 C   0  0  2  0  0  0  0  0  0  0  0  0
    3.5830   12.2460   29.7450 C   0  0  0  0  0  0  0  0  0  0  0  0
    3.5430   10.3850   28.0280 C   0  0  0  0  0  0  0  0  0  0  0  0
    4.9460   10.7160   27.5420 C   0  0  0  0  0  0  0  0  0  0  0  0
    5.8150   11.1610   28.2890 O   0  0  0  0  0  0  0  0  0  0  0  0
    5.1510   10.5150   26.2080 N   0  0  0  0  0  0  0  0  0  0  0  0
    6.3460   10.7510   25.5290 C   0  0  0  0  0  0  0  0  0  0  0  0
    7.2030    9.9020   24.8840 C   0  0  0  0  0  0  0  0  0  0  0  0
    6.8180   12.0180   25.3340 N   0  0  0  0  0  0  0  0  0  0  0  0
    6.2670   13.2920   25.7800 C   0  0  0  0  0  0  0  0  0  0  0  0
    7.9510   12.0160   24.5820 N   0  0  0  0  0  0  0  0  0  0  0  0
    8.1810   10.7130   24.2900 C   0  0  0  0  0  0  0  0  0  0  0  0
    9.1840   10.3500   23.4860 O   0  0  0  0  0  0  0  0  0  0  0  0
    9.3570    8.9380   23.2060 C   0  0  0  0  0  0  0  0  0  0  0  0
 18 17  1  0
 17 16  1  0
 16 12  1  0
 12 11  2  0
 11 10  1  0
 10  8  1  0
  9  8  2  0
  8  7  1  0
  7  5  1  0
  5  6  1  6
  5  2  1  0
  3  2  1  0
  4  2  1  0
  2  1  1  0
 13 11  1  0
 14 13  1  0
 15 13  1  0
 16 15  2  0
M  END
$$$$
