A71EV2A-x3556_A_201_1_A71EV2A-x0911+A+147+1__LIG
     RDKit          3D

 21 23  0  0  0  0  0  0  0  0999 V2000
   10.3000   16.3880   19.2980 O   0  0  0  0  0  0  0  0  0  0  0  0
   10.9050   15.3240   19.4570 C   0  0  0  0  0  0  0  0  0  0  0  0
   11.3240   14.5780   18.4470 N   0  0  0  0  0  0  0  0  0  0  0  0
   11.1560   14.7600   20.8470 C   0  0  1  0  0  0  0  0  0  0  0  0
   12.1820   15.5320   21.6930 C   0  0  0  0  0  0  0  0  0  0  0  0
   11.9130   15.0520   23.1170 C   0  0  0  0  0  0  0  0  0  0  0  0
    9.9130   14.7840   21.7390 C   0  0  0  0  0  0  0  0  0  0  0  0
   10.4780   14.7100   23.0920 N   0  0  0  0  0  0  0  0  0  0  0  0
    9.7900   14.4370   24.2210 C   0  0  0  0  0  0  0  0  0  0  0  0
   10.3310   14.4080   25.3150 O   0  0  0  0  0  0  0  0  0  0  0  0
    8.2950   14.2180   24.0810 C   0  0  0  0  0  0  0  0  0  0  0  0
    7.7840   13.0230   24.8570 C   0  0  0  0  0  0  0  0  0  0  0  0
    6.8810   13.2100   25.9020 C   0  0  0  0  0  0  0  0  0  0  0  0
    6.2660   12.1370   26.5330 C   0  0  0  0  0  0  0  0  0  0  0  0
    6.5600   10.8370   26.1540 C   0  0  0  0  0  0  0  0  0  0  0  0
    7.4940   10.6060   25.1300 C   0  0  0  0  0  0  0  0  0  0  0  0
    8.1050   11.7010   24.4830 C   0  0  0  0  0  0  0  0  0  0  0  0
    8.9790   11.1100   23.5340 C   0  0  0  0  0  0  0  0  0  0  0  0
    7.9510    9.4030   24.6290 N   0  0  0  0  0  0  0  0  0  0  0  0
    8.8510    9.7840   23.6740 N   0  0  0  0  0  0  0  0  0  0  0  0
    9.6580    8.7740   22.9880 C   0  0  0  0  0  0  0  0  0  0  0  0
 21 20  1  0
 20 18  1  0
 18 17  2  0
 17 12  1  0
 12 11  1  0
 11  9  1  0
 10  9  2  0
  9  8  1  0
  8  6  1  0
  6  5  1  0
  5  4  1  0
  4  2  1  6
  3  2  1  0
  2  1  2  0
  7  4  1  0
  8  7  1  0
 13 12  2  0
 14 13  1  0
 15 14  2  0
 16 15  1  0
 17 16  1  0
 19 16  2  0
 20 19  1  0
M  END
$$$$
