A71EV2A-x4922_A_201_1_A71EV2A-x0911+A+147+1__LIG
     RDKit          3D

 18 19  0  0  0  0  0  0  0  0999 V2000
   11.3970   14.1030   25.1720 O   0  0  0  0  0  0  0  0  0  0  0  0
   11.2020   14.4120   24.0090 C   0  0  0  0  0  0  0  0  0  0  0  0
   12.2840   15.1050   23.2260 C   0  0  0  0  0  0  0  0  0  0  0  0
   11.8020   15.7880   21.9520 C   0  0  0  0  0  0  0  0  0  0  0  0
   10.9570   14.8050   21.1380 C   0  0  2  0  0  0  0  0  0  0  0  0
   10.6960   15.3410   19.7410 C   0  0  0  0  0  0  0  0  0  0  0  0
   10.1610   16.4400   19.5680 O   0  0  0  0  0  0  0  0  0  0  0  0
   11.0930   14.5710   18.7390 N   0  0  0  0  0  0  0  0  0  0  0  0
    9.7030   14.4660   21.9580 C   0  0  0  0  0  0  0  0  0  0  0  0
   10.0030   14.1560   23.3840 N   0  0  0  0  0  0  0  0  0  0  0  0
    8.9540   13.5660   24.1680 C   0  0  0  0  0  0  0  0  0  0  0  0
    8.7670   12.1800   24.2240 C   0  0  0  0  0  0  0  0  0  0  0  0
    9.9230   11.1810   23.3390 S   0  0  0  0  0  0  0  0  0  0  0  0
    9.3450    9.5160   23.5900 C   0  0  0  0  0  0  0  0  0  0  0  0
    8.1590   14.3960   24.9570 C   0  0  0  0  0  0  0  0  0  0  0  0
    7.1840   13.8470   25.7730 C   0  0  0  0  0  0  0  0  0  0  0  0
    6.9820   12.4790   25.8010 C   0  0  0  0  0  0  0  0  0  0  0  0
    7.7660   11.6380   25.0260 C   0  0  0  0  0  0  0  0  0  0  0  0
 14 13  1  0
 13 12  1  0
 12 18  2  0
 18 17  1  0
 17 16  2  0
 16 15  1  0
 15 11  2  0
 12 11  1  0
 11 10  1  0
 10  9  1  0
  9  5  1  0
  5  6  1  6
  8  6  1  0
  7  6  2  0
  5  4  1  0
  4  3  1  0
  3  2  1  0
 10  2  1  0
  2  1  2  0
M  END
$$$$
