A71EV2A-x4291_A_201_1_A71EV2A-x0911+A+147+1__LIG
     RDKit          3D

 21 22  0  0  0  0  0  0  0  0999 V2000
    8.8440    9.9320   24.1490 O   0  0  0  0  0  0  0  0  0  0  0  0
    7.9980   10.5880   24.7950 C   0  0  0  0  0  0  0  0  0  0  0  0
    6.9160    9.9540   25.3960 N   0  0  0  0  0  0  0  0  0  0  0  0
    5.9510   10.5960   26.1310 C   0  0  0  0  0  0  0  0  0  0  0  0
    4.8240    9.7700   26.6680 C   0  0  0  0  0  0  0  0  0  0  0  0
    8.0560   12.0160   24.9960 C   0  0  0  0  0  0  0  0  0  0  0  0
    7.0870   12.6740   25.7440 C   0  0  0  0  0  0  0  0  0  0  0  0
    7.1120   14.1330   26.0720 C   0  0  0  0  0  0  0  0  0  0  0  0
    6.0390   11.9360   26.2970 C   0  0  0  0  0  0  0  0  0  0  0  0
    9.2260   12.7610   24.4020 C   0  0  0  0  0  0  0  0  0  0  0  0
    8.8540   13.5370   23.1540 C   0  0  0  0  0  0  0  0  0  0  0  0
    7.8910   13.2170   22.4910 O   0  0  0  0  0  0  0  0  0  0  0  0
    9.6400   14.5790   22.8070 N   0  0  0  0  0  0  0  0  0  0  0  0
    9.5030   15.2210   21.4960 C   0  0  0  0  0  0  0  0  0  0  0  0
   10.7810   14.9830   20.6880 C   0  0  1  0  0  0  0  0  0  0  0  0
   10.7120   15.4940   19.2590 C   0  0  0  0  0  0  0  0  0  0  0  0
   10.3370   16.6480   19.0130 O   0  0  0  0  0  0  0  0  0  0  0  0
   11.0370   14.6150   18.3110 N   0  0  0  0  0  0  0  0  0  0  0  0
   11.9660   15.5770   21.4750 C   0  0  0  0  0  0  0  0  0  0  0  0
   12.0650   14.9420   22.8660 C   0  0  0  0  0  0  0  0  0  0  0  0
   10.7520   15.0870   23.6240 C   0  0  0  0  0  0  0  0  0  0  0  0
  5  4  1  0
  4  9  2  0
  9  7  1  0
  8  7  1  0
  7  6  2  0
 10  6  1  0
 11 10  1  0
 12 11  2  0
 13 11  1  0
 13 21  1  0
 21 20  1  0
 20 19  1  0
 19 15  1  0
 15 16  1  6
 18 16  1  0
 17 16  2  0
 15 14  1  0
 14 13  1  0
  6  2  1  0
  2  1  2  0
  3  2  1  0
  4  3  1  0
M  END
$$$$
