A71EV2A-x3623_A_201_1_A71EV2A-x0911+A+147+1__LIG
     RDKit          3D

 20 21  0  0  0  0  0  0  0  0999 V2000
    7.9600   15.4200   21.7040 O   0  0  0  0  0  0  0  0  0  0  0  0
    6.9530   14.6060   22.2990 S   0  0  0  0  0  0  0  0  0  0  0  0
    6.8980   13.2170   21.9860 O   0  0  0  0  0  0  0  0  0  0  0  0
    5.5230   15.2450   21.8640 N   0  0  0  0  0  0  0  0  0  0  0  0
    4.2810   14.4980   22.0420 C   0  0  0  0  0  0  0  0  0  0  0  0
    3.5960   14.3330   20.7260 C   0  0  0  0  0  0  0  0  0  0  0  0
    2.8350   15.1810   20.1340 N   0  0  0  0  0  0  0  0  0  0  0  0
    2.4720   14.5560   18.9660 C   0  0  0  0  0  0  0  0  0  0  0  0
    3.7790   13.1670   20.0450 O   0  0  0  0  0  0  0  0  0  0  0  0
    3.0380   13.3490   18.8920 C   0  0  0  0  0  0  0  0  0  0  0  0
    3.0890   12.2420   17.9020 C   0  0  0  0  0  0  0  0  0  0  0  0
    7.0700   14.7480   24.0630 C   0  0  0  0  0  0  0  0  0  0  0  0
    8.3500   14.2410   24.7340 C   0  0  1  0  0  0  0  0  0  0  0  0
    8.4260   14.7360   26.1800 C   0  0  0  0  0  0  0  0  0  0  0  0
    8.4480   12.7280   24.6400 C   0  0  0  0  0  0  0  0  0  0  0  0
    7.6670   11.9140   25.4510 C   0  0  0  0  0  0  0  0  0  0  0  0
    7.7820   10.5390   25.3900 C   0  0  0  0  0  0  0  0  0  0  0  0
    8.6690    9.9550   24.5120 C   0  0  0  0  0  0  0  0  0  0  0  0
    9.4370   10.7480   23.6890 C   0  0  0  0  0  0  0  0  0  0  0  0
    9.3290   12.1290   23.7550 C   0  0  0  0  0  0  0  0  0  0  0  0
 11 10  1  0
 10  8  2  0
  8  7  1  0
  7  6  2  0
  6  5  1  0
  5  4  1  0
  4  2  1  0
  3  2  2  0
  2  1  2  0
 12  2  1  0
 13 12  1  0
 13 14  1  1
 15 13  1  0
 15 20  2  0
 20 19  1  0
 19 18  2  0
 18 17  1  0
 17 16  2  0
 16 15  1  0
  9  6  1  0
 10  9  1  0
M  END
$$$$
