A71EV2A-x3858_C_201_1_A71EV2A-x0911+A+147+1__LIG
     RDKit          3D

 21 22  0  0  0  0  0  0  0  0999 V2000
   10.2510   16.8980   19.0220 O   0  0  0  0  0  0  0  0  0  0  0  0
   10.6460   15.8430   19.4800 C   0  0  0  0  0  0  0  0  0  0  0  0
   10.9610   14.8050   18.6980 N   0  0  0  0  0  0  0  0  0  0  0  0
   10.7570   15.6720   20.9830 C   0  0  2  0  0  0  0  0  0  0  0  0
   12.1990   15.6570   21.4730 C   0  0  0  0  0  0  0  0  0  0  0  0
   12.2390   15.4650   22.9860 C   0  0  0  0  0  0  0  0  0  0  0  0
   11.4670   14.2250   23.3970 C   0  0  0  0  0  0  0  0  0  0  0  0
    9.9270   14.4860   21.4290 C   0  0  0  0  0  0  0  0  0  0  0  0
   10.0950   14.1950   22.8550 N   0  0  0  0  0  0  0  0  0  0  0  0
    9.0650   13.5230   23.4170 C   0  0  0  0  0  0  0  0  0  0  0  0
    7.9860   13.3060   22.8250 O   0  0  0  0  0  0  0  0  0  0  0  0
    9.3490   12.9510   24.7880 C   0  0  0  0  0  0  0  0  0  0  0  0
    8.2320   11.9940   25.1370 C   0  0  0  0  0  0  0  0  0  0  0  0
    8.2750   10.6670   24.6760 C   0  0  0  0  0  0  0  0  0  0  0  0
    9.2760   10.3930   23.7750 O   0  0  0  0  0  0  0  0  0  0  0  0
    9.4370    9.0290   23.3370 C   0  0  0  0  0  0  0  0  0  0  0  0
    7.2050   12.3420   26.0240 C   0  0  0  0  0  0  0  0  0  0  0  0
    7.1200   13.9660   26.6480 Cl  0  0  0  0  0  0  0  0  0  0  0  0
    6.2920   11.4230   26.4840 C   0  0  0  0  0  0  0  0  0  0  0  0
    6.3860   10.1140   26.0610 C   0  0  0  0  0  0  0  0  0  0  0  0
    7.3660    9.7290   25.1500 C   0  0  0  0  0  0  0  0  0  0  0  0
 16 15  1  0
 15 14  1  0
 14 21  2  0
 21 20  1  0
 20 19  2  0
 19 17  1  0
 18 17  1  0
 17 13  2  0
 14 13  1  0
 13 12  1  0
 12 10  1  0
 11 10  2  0
 10  9  1  0
  9  7  1  0
  7  6  1  0
  6  5  1  0
  5  4  1  0
  4  2  1  6
  3  2  1  0
  2  1  2  0
  8  4  1  0
  9  8  1  0
M  END
$$$$
