A71EV2A-x3956_A_201_1_A71EV2A-x0911+A+147+1__LIG
     RDKit          3D

 19 20  0  0  0  0  0  0  0  0999 V2000
   11.6760   15.7260   24.0790 O   0  0  0  0  0  0  0  0  0  0  0  0
   11.2040   15.4650   22.9720 C   0  0  0  0  0  0  0  0  0  0  0  0
   11.7950   15.7940   21.6310 C   0  0  0  0  0  0  0  0  0  0  0  0
   10.9850   14.8880   20.6790 C   0  0  2  0  0  0  0  0  0  0  0  0
   10.9260   15.3080   19.2200 C   0  0  0  0  0  0  0  0  0  0  0  0
   11.2730   14.5370   18.3240 O   0  0  0  0  0  0  0  0  0  0  0  0
   10.4130   16.4980   18.9690 N   0  0  0  0  0  0  0  0  0  0  0  0
    9.6190   14.8500   21.3460 C   0  0  0  0  0  0  0  0  0  0  0  0
    9.9980   14.8900   22.7620 N   0  0  0  0  0  0  0  0  0  0  0  0
    9.1480   14.3580   23.8370 C   0  0  0  0  0  0  0  0  0  0  0  0
    9.3080   12.8420   23.9260 C   0  0  0  0  0  0  0  0  0  0  0  0
    8.1920   12.0670   24.5900 C   0  0  0  0  0  0  0  0  0  0  0  0
    8.1000   10.6910   24.3860 C   0  0  0  0  0  0  0  0  0  0  0  0
    9.0000   10.1940   23.4770 O   0  0  0  0  0  0  0  0  0  0  0  0
    9.0440    8.7800   23.2750 C   0  0  0  0  0  0  0  0  0  0  0  0
    7.2890   12.6680   25.4700 C   0  0  0  0  0  0  0  0  0  0  0  0
    6.3730   11.9020   26.1800 C   0  0  0  0  0  0  0  0  0  0  0  0
    6.3360   10.5290   26.0080 C   0  0  0  0  0  0  0  0  0  0  0  0
    7.1830    9.9200   25.0930 C   0  0  0  0  0  0  0  0  0  0  0  0
 15 14  1  0
 14 13  1  0
 13 19  2  0
 19 18  1  0
 18 17  2  0
 17 16  1  0
 16 12  2  0
 13 12  1  0
 12 11  1  0
 11 10  1  0
 10  9  1  0
  9  8  1  0
  8  4  1  0
  4  5  1  6
  7  5  1  0
  6  5  2  0
  4  3  1  0
  3  2  1  0
  9  2  1  0
  2  1  2  0
M  END
$$$$
