A71EV2A-x4847_A_201_1_A71EV2A-x0911+A+147+1__LIG
     RDKit          3D

 20 22  0  0  0  0  0  0  0  0999 V2000
   11.5970   14.7700   24.8930 O   0  0  0  0  0  0  0  0  0  0  0  0
   11.4490   14.8830   23.6810 C   0  0  0  0  0  0  0  0  0  0  0  0
   12.6220   15.2610   22.8100 C   0  0  0  0  0  0  0  0  0  0  0  0
   12.2890   15.7650   21.3950 C   0  0  0  0  0  0  0  0  0  0  0  0
   10.2390   14.7340   23.0830 N   0  0  0  0  0  0  0  0  0  0  0  0
    9.9200   14.9640   21.6650 C   0  0  0  0  0  0  0  0  0  0  0  0
   11.1680   14.9210   20.7790 C   0  0  1  0  0  0  0  0  0  0  0  0
   10.8320   15.3690   19.3640 C   0  0  0  0  0  0  0  0  0  0  0  0
   10.2670   16.4510   19.1520 O   0  0  0  0  0  0  0  0  0  0  0  0
   11.1400   14.5100   18.4030 N   0  0  0  0  0  0  0  0  0  0  0  0
    9.0850   14.3350   23.8970 C   0  0  0  0  0  0  0  0  0  0  0  0
    8.8470   12.8380   23.9690 C   0  0  0  0  0  0  0  0  0  0  0  0
    7.8470   12.3150   24.8160 C   0  0  0  0  0  0  0  0  0  0  0  0
    6.8630   12.9150   25.6740 C   0  0  0  0  0  0  0  0  0  0  0  0
    6.1910   11.8970   26.2700 C   0  0  0  0  0  0  0  0  0  0  0  0
    6.6970   10.6880   25.8540 N   0  0  0  0  0  0  0  0  0  0  0  0
    7.7160   10.9170   24.9530 C   0  0  0  0  0  0  0  0  0  0  0  0
    8.5430   10.0270   24.2740 C   0  0  0  0  0  0  0  0  0  0  0  0
    9.4980   10.5500   23.4170 C   0  0  0  0  0  0  0  0  0  0  0  0
    9.6500   11.9280   23.2740 C   0  0  0  0  0  0  0  0  0  0  0  0
 10  8  1  0
  9  8  2  0
  7  8  1  6
  7  4  1  0
  4  3  1  0
  3  2  1  0
  2  1  2  0
  5  2  1  0
 11  5  1  0
 12 11  1  0
 12 20  1  0
 20 19  2  0
 19 18  1  0
 18 17  2  0
 17 16  1  0
 16 15  1  0
 15 14  2  0
 14 13  1  0
 13 12  2  0
 17 13  1  0
  6  5  1  0
  7  6  1  0
M  END
$$$$
