A71EV2A-x5594_A_201_5_A71EV2A-x0911+A+147+1__LIG
     RDKit          3D

 20 21  0  0  0  0  0  0  0  0999 V2000
   10.3770   16.5950   19.2990 O   0  0  0  0  0  0  0  0  0  0  0  0
   10.7650   15.4440   19.5300 C   0  0  0  0  0  0  0  0  0  0  0  0
   11.1210   14.5990   18.5740 N   0  0  0  0  0  0  0  0  0  0  0  0
   10.7330   14.8680   20.9360 C   0  0  1  0  0  0  0  0  0  0  0  0
   11.7930   15.4860   21.8660 C   0  0  0  0  0  0  0  0  0  0  0  0
   11.6750   14.8660   23.2640 C   0  0  0  0  0  0  0  0  0  0  0  0
   10.2490   15.0090   23.8080 C   0  0  0  0  0  0  0  0  0  0  0  0
    9.3260   15.0790   21.5090 C   0  0  0  0  0  0  0  0  0  0  0  0
    9.2480   14.5010   22.8540 N   0  0  0  0  0  0  0  0  0  0  0  0
    8.2710   13.6310   23.1730 C   0  0  0  0  0  0  0  0  0  0  0  0
    7.4160   13.2560   22.4090 O   0  0  0  0  0  0  0  0  0  0  0  0
    8.3470   13.2610   24.4910 O   0  0  0  0  0  0  0  0  0  0  0  0
    7.3950   12.3400   24.9410 C   0  0  0  0  0  0  0  0  0  0  0  0
    7.6090   10.9840   24.6680 C   0  0  0  0  0  0  0  0  0  0  0  0
    8.7330   10.5730   23.8720 C   0  0  0  0  0  0  0  0  0  0  0  0
    9.6300   10.2900   23.2300 N   0  0  0  0  0  0  0  0  0  0  0  0
    6.2990   12.6920   25.7100 C   0  0  0  0  0  0  0  0  0  0  0  0
    5.4460   11.7940   26.2260 N   0  0  0  0  0  0  0  0  0  0  0  0
    5.6710   10.5020   25.9660 C   0  0  0  0  0  0  0  0  0  0  0  0
    6.7160   10.0530   25.1930 C   0  0  0  0  0  0  0  0  0  0  0  0
 16 15  3  0
 15 14  1  0
 14 20  2  0
 20 19  1  0
 19 18  2  0
 18 17  1  0
 17 13  2  0
 14 13  1  0
 13 12  1  0
 12 10  1  0
 11 10  2  0
 10  9  1  0
  9  7  1  0
  7  6  1  0
  6  5  1  0
  5  4  1  0
  4  2  1  6
  3  2  1  0
  2  1  2  0
  8  4  1  0
  9  8  1  0
M  END
$$$$
