A71EV2A-x4372_A_201_1_A71EV2A-x0911+A+147+1__LIG
     RDKit          3D

 19 20  0  0  0  0  0  0  0  0999 V2000
    7.7060   13.1690   22.6410 O   0  0  0  0  0  0  0  0  0  0  0  0
    8.7130   13.4130   23.2860 C   0  0  0  0  0  0  0  0  0  0  0  0
    9.5520   14.4150   22.9510 N   0  0  0  0  0  0  0  0  0  0  0  0
   10.6550   14.9270   23.7820 C   0  0  0  0  0  0  0  0  0  0  0  0
   11.9850   14.8470   23.0330 C   0  0  0  0  0  0  0  0  0  0  0  0
   11.8720   15.4650   21.6370 C   0  0  0  0  0  0  0  0  0  0  0  0
    9.4250   15.0810   21.6530 C   0  0  0  0  0  0  0  0  0  0  0  0
   10.7040   14.8510   20.8520 C   0  0  1  0  0  0  0  0  0  0  0  0
   10.6120   15.4020   19.4390 C   0  0  0  0  0  0  0  0  0  0  0  0
   10.2860   16.5710   19.2310 O   0  0  0  0  0  0  0  0  0  0  0  0
   10.8780   14.5450   18.4690 N   0  0  0  0  0  0  0  0  0  0  0  0
    9.1000   12.5800   24.4950 C   0  0  0  0  0  0  0  0  0  0  0  0
    7.9350   12.3800   25.4360 C   0  0  0  0  0  0  0  0  0  0  0  0
    7.2470   13.4430   26.0330 C   0  0  0  0  0  0  0  0  0  0  0  0
    7.6160   14.7060   25.9920 O   0  0  0  0  0  0  0  0  0  0  0  0
    6.1010   13.2820   26.8250 N   0  0  0  0  0  0  0  0  0  0  0  0
    5.6990   12.0190   27.0300 C   0  0  0  0  0  0  0  0  0  0  0  0
    6.3450   10.9140   26.5120 C   0  0  0  0  0  0  0  0  0  0  0  0
    7.4580   11.1010   25.7070 C   0  0  0  0  0  0  0  0  0  0  0  0
 11  9  1  0
 10  9  2  0
  8  9  1  6
  8  6  1  0
  6  5  1  0
  5  4  1  0
  4  3  1  0
  3  2  1  0
  2  1  2  0
 12  2  1  0
 13 12  1  0
 13 19  2  0
 19 18  1  0
 18 17  2  0
 17 16  1  0
 16 14  2  0
 14 13  1  0
 15 14  1  0
  7  3  1  0
  8  7  1  0
M  END
$$$$
