A71EV2A-x5424_A_201_5_A71EV2A-x0911+A+147+1__LIG
     RDKit          3D

 18 19  0  0  0  0  0  0  0  0999 V2000
   10.1560   16.7840   19.2970 O   0  0  0  0  0  0  0  0  0  0  0  0
   10.5550   15.6480   19.5630 C   0  0  0  0  0  0  0  0  0  0  0  0
   11.1140   14.8600   18.6570 N   0  0  0  0  0  0  0  0  0  0  0  0
   10.3950   15.0630   20.9570 C   0  0  1  0  0  0  0  0  0  0  0  0
   11.5720   15.4490   21.8680 C   0  0  0  0  0  0  0  0  0  0  0  0
   11.4370   14.8000   23.2560 C   0  0  0  0  0  0  0  0  0  0  0  0
   10.0850   15.1240   23.8820 C   0  0  0  0  0  0  0  0  0  0  0  0
    9.0830   15.4650   21.6450 C   0  0  0  0  0  0  0  0  0  0  0  0
    8.9760   14.8220   22.9590 N   0  0  0  0  0  0  0  0  0  0  0  0
    7.9110   14.0380   23.2720 C   0  0  0  0  0  0  0  0  0  0  0  0
    7.0300   13.7920   22.4640 O   0  0  0  0  0  0  0  0  0  0  0  0
    7.8470   13.4400   24.6630 C   0  0  0  0  0  0  0  0  0  0  0  0
    7.9810   11.9460   24.6100 C   0  0  0  0  0  0  0  0  0  0  0  0
    7.1630   10.9980   25.1820 C   0  0  0  0  0  0  0  0  0  0  0  0
    7.5490    9.6700   24.8680 C   0  0  0  0  0  0  0  0  0  0  0  0
    9.2360   11.1870   23.6960 S   0  0  0  0  0  0  0  0  0  0  0  0
    8.6500    9.6000   24.0610 C   0  0  0  0  0  0  0  0  0  0  0  0
    9.2930    8.3920   23.4520 C   0  0  0  0  0  0  0  0  0  0  0  0
 18 17  1  0
 17 15  2  0
 15 14  1  0
 14 13  2  0
 13 12  1  0
 12 10  1  0
 11 10  2  0
 10  9  1  0
  9  7  1  0
  7  6  1  0
  6  5  1  0
  5  4  1  0
  4  2  1  6
  3  2  1  0
  2  1  2  0
  8  4  1  0
  9  8  1  0
 16 13  1  0
 17 16  1  0
M  END
$$$$
