A71EV2A-x4707_A_201_1_A71EV2A-x0911+A+147+1__LIG
     RDKit          3D

 16 17  0  0  0  0  0  0  0  0999 V2000
    7.4500   12.7250   22.5540 O   0  0  0  0  0  0  0  0  0  0  0  0
    8.4010   13.0870   23.2010 C   0  0  0  0  0  0  0  0  0  0  0  0
    8.7780   12.3330   24.4480 C   0  0  0  0  0  0  0  0  0  0  0  0
    8.3160   10.8850   24.2720 C   0  0  0  0  0  0  0  0  0  0  0  0
    9.2980   10.3210   23.3110 C   0  0  0  0  0  0  0  0  0  0  0  0
    9.9820    9.1260   24.6340 S   0  0  0  0  0  0  0  0  0  0  0  0
    8.4140    9.8570   25.3690 C   0  0  0  0  0  0  0  0  0  0  0  0
    9.1100   14.1840   22.9120 N   0  0  0  0  0  0  0  0  0  0  0  0
   10.1470   14.6500   23.8400 C   0  0  0  0  0  0  0  0  0  0  0  0
   11.5270   14.6610   23.1600 C   0  0  0  0  0  0  0  0  0  0  0  0
   11.5270   15.3200   21.7880 C   0  0  0  0  0  0  0  0  0  0  0  0
    9.0510   14.9930   21.7060 C   0  0  0  0  0  0  0  0  0  0  0  0
   10.3460   14.8160   20.9360 C   0  0  1  0  0  0  0  0  0  0  0  0
   10.3220   15.3730   19.5180 C   0  0  0  0  0  0  0  0  0  0  0  0
    9.9550   16.4700   19.2650 O   0  0  0  0  0  0  0  0  0  0  0  0
   10.8010   14.4760   18.6290 N   0  0  0  0  0  0  0  0  0  0  0  0
 16 14  1  0
 15 14  2  0
 13 14  1  6
 13 11  1  0
 11 10  1  0
 10  9  1  0
  9  8  1  0
  8  2  1  0
  2  1  2  0
  3  2  1  0
  4  3  1  0
  4  7  1  0
  7  6  1  0
  6  5  1  0
  5  4  1  0
 12  8  1  0
 13 12  1  0
M  END
$$$$
