A71EV2A-x4431_A_201_1_A71EV2A-x0911+A+147+1__LIG
     RDKit          3D

 21 22  0  0  0  0  0  0  0  0999 V2000
   10.2610   16.6690   19.0880 O   0  0  0  0  0  0  0  0  0  0  0  0
   10.6510   15.5390   19.3840 C   0  0  0  0  0  0  0  0  0  0  0  0
   11.1010   14.6750   18.4850 N   0  0  0  0  0  0  0  0  0  0  0  0
   10.6980   15.0770   20.8290 C   0  0  1  0  0  0  0  0  0  0  0  0
   11.7860   15.8150   21.6140 C   0  0  0  0  0  0  0  0  0  0  0  0
   11.9100   15.2630   23.0330 C   0  0  0  0  0  0  0  0  0  0  0  0
   10.5820   15.3470   23.7500 C   0  0  0  0  0  0  0  0  0  0  0  0
    9.3800   15.2550   21.5850 C   0  0  0  0  0  0  0  0  0  0  0  0
    9.5080   14.7360   22.9510 N   0  0  0  0  0  0  0  0  0  0  0  0
    8.6740   13.7770   23.4020 C   0  0  0  0  0  0  0  0  0  0  0  0
    7.8020   13.2900   22.6920 O   0  0  0  0  0  0  0  0  0  0  0  0
    8.9150   13.2990   24.8210 C   0  0  0  0  0  0  0  0  0  0  0  0
    8.0470   12.1220   25.2040 C   0  0  0  0  0  0  0  0  0  0  0  0
    8.2280   10.8140   24.7340 C   0  0  0  0  0  0  0  0  0  0  0  0
    9.5400   10.5390   23.5870 S   0  0  0  0  0  0  0  0  0  0  0  0
    9.5310    8.7660   23.3420 C   0  0  0  0  0  0  0  0  0  0  0  0
    7.0320   12.3750   26.1130 C   0  0  0  0  0  0  0  0  0  0  0  0
    6.2220   11.3530   26.5350 C   0  0  0  0  0  0  0  0  0  0  0  0
    4.8390   11.7460   27.7690 Br  0  0  0  0  0  0  0  0  0  0  0  0
    6.3840   10.0620   26.0850 C   0  0  0  0  0  0  0  0  0  0  0  0
    7.3920    9.7890   25.1780 C   0  0  0  0  0  0  0  0  0  0  0  0
 16 15  1  0
 15 14  1  0
 14 21  2  0
 21 20  1  0
 20 18  2  0
 19 18  1  0
 18 17  1  0
 17 13  2  0
 14 13  1  0
 13 12  1  0
 12 10  1  0
 11 10  2  0
 10  9  1  0
  9  7  1  0
  7  6  1  0
  6  5  1  0
  5  4  1  0
  4  2  1  6
  3  2  1  0
  2  1  2  0
  8  4  1  0
  9  8  1  0
M  END
$$$$
