XX01ZVNS2B-x4047_B_203_1_XX01ZVNS2B-x4590+B+203+1__LIG
     RDKit          3D

 23 26  0  0  0  0  0  0  0  0999 V2000
   -8.5330    4.4550   -7.8050 F   0  0  0  0  0  0  0  0  0  0  0  0
   -8.4500    4.4280   -9.1610 C   0  0  0  0  0  0  0  0  0  0  0  0
   -8.3370    5.6150   -9.8320 C   0  0  0  0  0  0  0  0  0  0  0  0
   -8.3240    5.5910  -11.2140 C   0  0  0  0  0  0  0  0  0  0  0  0
   -8.5250    3.2190   -9.7950 C   0  0  0  0  0  0  0  0  0  0  0  0
   -8.5020    3.1970  -11.1780 C   0  0  0  0  0  0  0  0  0  0  0  0
   -8.4120    4.3820  -11.8970 C   0  0  0  0  0  0  0  0  0  0  0  0
   -8.4130    4.3350  -13.3110 N   0  0  0  0  0  0  0  0  0  0  0  0
   -7.6160    5.0520  -14.1370 C   0  0  0  0  0  0  0  0  0  0  0  0
   -6.8020    5.8790  -13.7330 O   0  0  0  0  0  0  0  0  0  0  0  0
   -7.7260    4.7410  -15.5970 C   0  0  0  0  0  0  0  0  0  0  0  0
   -6.7020    5.0860  -16.4930 C   0  0  0  0  0  0  0  0  0  0  0  0
   -6.8150    4.8440  -17.8730 C   0  0  0  0  0  0  0  0  0  0  0  0
   -7.9810    4.2640  -18.3650 C   0  0  0  0  0  0  0  0  0  0  0  0
   -8.9960    3.9110  -17.4870 C   0  0  0  0  0  0  0  0  0  0  0  0
   -8.8680    4.1350  -16.1210 C   0  0  0  0  0  0  0  0  0  0  0  0
   -5.4660    5.6000  -16.2820 N   0  0  0  0  0  0  0  0  0  0  0  0
   -4.7570    5.6930  -17.4480 N   0  0  0  0  0  0  0  0  0  0  0  0
   -5.5350    5.2520  -18.4110 C   0  0  0  0  0  0  0  0  0  0  0  0
   -5.0700    5.2000  -19.8400 C   0  0  0  0  0  0  0  0  0  0  0  0
   -4.9200    6.5730  -20.5450 C   0  0  0  0  0  0  0  0  0  0  0  0
   -3.6090    6.1160  -21.0690 N   0  0  0  0  0  0  0  0  0  0  0  0
   -3.5410    5.0360  -20.0550 C   0  0  0  0  0  0  0  0  0  0  0  0
 10  9  2  0
  9  8  1  0
  8  7  1  0
  7  4  2  0
  4  3  1  0
  3  2  2  0
  2  1  1  0
  5  2  1  0
  6  5  2  0
  7  6  1  0
 11  9  1  0
 11 16  2  0
 16 15  1  0
 15 14  2  0
 14 13  1  0
 13 19  1  0
 20 19  1  0
 20 23  1  0
 23 22  1  0
 22 21  1  0
 21 20  1  0
 19 18  2  0
 18 17  1  0
 17 12  1  0
 12 11  1  0
 13 12  2  0
M  END
$$$$
