A71EV2A-x4979_A_201_1_A71EV2A-x0911+A+147+1__LIG
     RDKit          3D

 19 20  0  0  0  0  0  0  0  0999 V2000
    9.3680   10.1670   23.6480 Cl  0  0  0  0  0  0  0  0  0  0  0  0
    8.0820   10.6870   24.6860 C   0  0  0  0  0  0  0  0  0  0  0  0
    7.1590    9.7680   25.1410 C   0  0  0  0  0  0  0  0  0  0  0  0
    6.1400   10.1040   25.9350 N   0  0  0  0  0  0  0  0  0  0  0  0
    6.1070   11.3860   26.2910 C   0  0  0  0  0  0  0  0  0  0  0  0
    6.9460   12.3500   25.9160 N   0  0  0  0  0  0  0  0  0  0  0  0
    7.9450   12.0000   25.0840 C   0  0  0  0  0  0  0  0  0  0  0  0
    8.9250   13.0790   24.7190 C   0  0  0  0  0  0  0  0  0  0  0  0
    8.6750   13.6640   23.3380 C   0  0  0  0  0  0  0  0  0  0  0  0
    7.7670   13.2680   22.6280 O   0  0  0  0  0  0  0  0  0  0  0  0
    9.4860   14.6730   22.9560 N   0  0  0  0  0  0  0  0  0  0  0  0
   10.5570   15.2620   23.7750 C   0  0  0  0  0  0  0  0  0  0  0  0
   11.9180   15.1220   23.0930 C   0  0  0  0  0  0  0  0  0  0  0  0
   11.8710   15.6690   21.6560 C   0  0  0  0  0  0  0  0  0  0  0  0
    9.3830   15.2360   21.6060 C   0  0  0  0  0  0  0  0  0  0  0  0
   10.7120   15.0240   20.8740 C   0  0  1  0  0  0  0  0  0  0  0  0
   10.6450   15.5380   19.4460 C   0  0  0  0  0  0  0  0  0  0  0  0
   10.2980   16.6960   19.2000 O   0  0  0  0  0  0  0  0  0  0  0  0
   10.9560   14.6620   18.4990 N   0  0  0  0  0  0  0  0  0  0  0  0
 19 17  1  0
 18 17  2  0
 16 17  1  6
 16 14  1  0
 14 13  1  0
 13 12  1  0
 12 11  1  0
 11  9  1  0
 10  9  2  0
  9  8  1  0
  8  7  1  0
  7  6  2  0
  6  5  1  0
  5  4  2  0
  4  3  1  0
  3  2  2  0
  7  2  1  0
  2  1  1  0
 15 11  1  0
 16 15  1  0
M  END
$$$$
