A71EV2A-x4882_A_201_1_A71EV2A-x0911+A+147+1__LIG
     RDKit          3D

 21 22  0  0  0  0  0  0  0  0999 V2000
    9.5060   10.1240   23.7720 Br  0  0  0  0  0  0  0  0  0  0  0  0
    8.0540   10.7870   24.8090 C   0  0  0  0  0  0  0  0  0  0  0  0
    7.1100    9.8770   25.2380 C   0  0  0  0  0  0  0  0  0  0  0  0
    6.0620   10.3380   25.9950 C   0  0  0  0  0  0  0  0  0  0  0  0
    5.0840    9.4910   26.3970 F   0  0  0  0  0  0  0  0  0  0  0  0
    5.9640   11.6570   26.3290 C   0  0  0  0  0  0  0  0  0  0  0  0
    4.9000   12.0690   27.0550 F   0  0  0  0  0  0  0  0  0  0  0  0
    6.9010   12.5630   25.9070 C   0  0  0  0  0  0  0  0  0  0  0  0
    7.9740   12.1390   25.1220 C   0  0  0  0  0  0  0  0  0  0  0  0
    9.0120   13.1500   24.7030 C   0  0  0  0  0  0  0  0  0  0  0  0
    8.7360   13.7400   23.3320 C   0  0  0  0  0  0  0  0  0  0  0  0
    7.8300   13.3370   22.6300 O   0  0  0  0  0  0  0  0  0  0  0  0
    9.5850   14.7080   22.9230 N   0  0  0  0  0  0  0  0  0  0  0  0
   10.6740   15.2700   23.7390 C   0  0  0  0  0  0  0  0  0  0  0  0
   12.0130   15.1090   23.0410 C   0  0  0  0  0  0  0  0  0  0  0  0
   11.9480   15.6760   21.6190 C   0  0  0  0  0  0  0  0  0  0  0  0
    9.4930   15.2330   21.5580 C   0  0  0  0  0  0  0  0  0  0  0  0
   10.8170   14.9940   20.8260 C   0  0  1  0  0  0  0  0  0  0  0  0
   10.7160   15.5310   19.4090 C   0  0  0  0  0  0  0  0  0  0  0  0
   10.3610   16.6930   19.1920 O   0  0  0  0  0  0  0  0  0  0  0  0
   10.9620   14.6560   18.4440 N   0  0  0  0  0  0  0  0  0  0  0  0
 21 19  1  0
 20 19  2  0
 18 19  1  6
 18 16  1  0
 16 15  1  0
 15 14  1  0
 14 13  1  0
 13 11  1  0
 12 11  2  0
 11 10  1  0
 10  9  1  0
  9  8  2  0
  8  6  1  0
  7  6  1  0
  6  4  2  0
  5  4  1  0
  4  3  1  0
  3  2  2  0
  9  2  1  0
  2  1  1  0
 17 13  1  0
 18 17  1  0
M  END
$$$$
