A71EV2A-x4934_A_201_1_A71EV2A-x0911+A+147+1__LIG
     RDKit          3D

 23 25  0  0  0  0  0  0  0  0999 V2000
   10.7850   14.6070   25.1990 O   0  0  0  0  0  0  0  0  0  0  0  0
   10.7930   14.7680   23.9740 C   0  0  0  0  0  0  0  0  0  0  0  0
   12.0520   15.2040   23.2530 C   0  0  0  0  0  0  0  0  0  0  0  0
   11.8690   15.7640   21.8350 C   0  0  0  0  0  0  0  0  0  0  0  0
    9.6820   14.5990   23.2190 N   0  0  0  0  0  0  0  0  0  0  0  0
    9.5340   14.8690   21.7790 C   0  0  0  0  0  0  0  0  0  0  0  0
   10.8770   14.9000   21.0340 C   0  0  1  0  0  0  0  0  0  0  0  0
   10.7000   15.4140   19.6120 C   0  0  0  0  0  0  0  0  0  0  0  0
   10.2330   16.5380   19.3920 O   0  0  0  0  0  0  0  0  0  0  0  0
   11.0170   14.5730   18.6410 N   0  0  0  0  0  0  0  0  0  0  0  0
    8.4520   14.1310   23.8680 C   0  0  0  0  0  0  0  0  0  0  0  0
    8.3880   12.6280   24.0430 C   0  0  0  0  0  0  0  0  0  0  0  0
    7.3830   12.0160   24.8100 C   0  0  0  0  0  0  0  0  0  0  0  0
    7.3980   10.6290   24.9710 C   0  0  0  0  0  0  0  0  0  0  0  0
    8.3710    9.8580   24.3660 C   0  0  0  0  0  0  0  0  0  0  0  0
    9.3580   10.4510   23.6240 C   0  0  0  0  0  0  0  0  0  0  0  0
    9.3720   11.8240   23.4620 C   0  0  0  0  0  0  0  0  0  0  0  0
    6.2870   12.7680   25.4810 C   0  0  0  0  0  0  0  0  0  0  0  0
    5.3810   13.5540   24.7700 C   0  0  0  0  0  0  0  0  0  0  0  0
    4.2810   14.0990   25.2990 N   0  0  0  0  0  0  0  0  0  0  0  0
    4.0470   13.8730   26.5970 C   0  0  0  0  0  0  0  0  0  0  0  0
    4.8820   13.1260   27.3960 C   0  0  0  0  0  0  0  0  0  0  0  0
    6.0120   12.5690   26.8270 C   0  0  0  0  0  0  0  0  0  0  0  0
 10  8  1  0
  9  8  2  0
  7  8  1  6
  7  4  1  0
  4  3  1  0
  3  2  1  0
  2  1  2  0
  5  2  1  0
 11  5  1  0
 12 11  1  0
 12 17  1  0
 17 16  2  0
 16 15  1  0
 15 14  2  0
 14 13  1  0
 13 12  2  0
 18 13  1  0
 18 23  2  0
 23 22  1  0
 22 21  2  0
 21 20  1  0
 20 19  2  0
 19 18  1  0
  6  5  1  0
  7  6  1  0
M  END
$$$$
