A71EV2A-x4283_A_201_1_A71EV2A-x0911+A+147+1__LIG
     RDKit          3D

 20 21  0  0  0  0  0  0  0  0999 V2000
   10.2480   16.6640   19.1990 O   0  0  0  0  0  0  0  0  0  0  0  0
   10.6300   15.5190   19.4370 C   0  0  0  0  0  0  0  0  0  0  0  0
   11.0000   14.6730   18.4850 N   0  0  0  0  0  0  0  0  0  0  0  0
   10.6720   14.9830   20.8600 C   0  0  1  0  0  0  0  0  0  0  0  0
   11.8090   15.6270   21.6770 C   0  0  0  0  0  0  0  0  0  0  0  0
   11.8290   15.0670   23.1040 C   0  0  0  0  0  0  0  0  0  0  0  0
   10.4680   15.2390   23.7700 C   0  0  0  0  0  0  0  0  0  0  0  0
    9.3370   15.2170   21.5830 C   0  0  0  0  0  0  0  0  0  0  0  0
    9.4020   14.6620   22.9360 N   0  0  0  0  0  0  0  0  0  0  0  0
    8.5630   13.6670   23.3100 C   0  0  0  0  0  0  0  0  0  0  0  0
    7.6740   13.2610   22.5810 O   0  0  0  0  0  0  0  0  0  0  0  0
    8.7980   13.0670   24.6810 C   0  0  0  0  0  0  0  0  0  0  0  0
    7.8020   12.0070   25.0460 C   0  0  0  0  0  0  0  0  0  0  0  0
    7.9660   10.6870   24.6160 C   0  0  0  0  0  0  0  0  0  0  0  0
    9.0230   10.4720   23.7680 O   0  0  0  0  0  0  0  0  0  0  0  0
    9.2770    9.1320   23.3300 C   0  0  0  0  0  0  0  0  0  0  0  0
    6.8010   12.3810   25.8610 N   0  0  0  0  0  0  0  0  0  0  0  0
    5.9500   11.4300   26.2850 C   0  0  0  0  0  0  0  0  0  0  0  0
    6.0420   10.1050   25.9100 C   0  0  0  0  0  0  0  0  0  0  0  0
    7.0740    9.7190   25.0610 C   0  0  0  0  0  0  0  0  0  0  0  0
 16 15  1  0
 15 14  1  0
 14 20  2  0
 20 19  1  0
 19 18  2  0
 18 17  1  0
 17 13  2  0
 14 13  1  0
 13 12  1  0
 12 10  1  0
 11 10  2  0
 10  9  1  0
  9  7  1  0
  7  6  1  0
  6  5  1  0
  5  4  1  0
  4  2  1  6
  3  2  1  0
  2  1  2  0
  8  4  1  0
  9  8  1  0
M  END
$$$$
