A71EV2A-x2458_E_246_1_A71EV2A-x0541+A+147+1__LIG
     RDKit          3D

 12 12  0  0  0  0  0  0  0  0999 V2000
    7.9620   11.3300    2.6050 Cl  0  0  0  0  0  0  0  0  0  0  0  0
    8.4200   13.0000    2.5310 C   0  0  0  0  0  0  0  0  0  0  0  0
    9.2260   13.4120    1.4810 C   0  0  0  0  0  0  0  0  0  0  0  0
    9.6410   14.7290    1.4150 C   0  0  0  0  0  0  0  0  0  0  0  0
    9.2500   15.6320    2.3740 C   0  0  0  0  0  0  0  0  0  0  0  0
    8.4380   15.2340    3.4230 C   0  0  0  0  0  0  0  0  0  0  0  0
    8.0190   13.9130    3.5140 C   0  0  0  0  0  0  0  0  0  0  0  0
    7.0040   13.4620    4.9000 S   0  0  0  0  0  0  0  0  0  0  0  0
    7.3610   12.1320    5.2860 O   0  0  0  0  0  0  0  0  0  0  0  0
    7.0550   14.5150    5.8660 O   0  0  0  0  0  0  0  0  0  0  0  0
    5.4790   13.3830    4.3620 N   0  0  0  0  0  0  0  0  0  0  0  0
    4.7200   14.6110    4.1560 C   0  0  0  0  0  0  0  0  0  0  0  0
 12 11  1  0
 11  8  1  0
  9  8  2  0
 10  8  2  0
  8  7  1  0
  7  6  2  0
  6  5  1  0
  5  4  2  0
  4  3  1  0
  3  2  2  0
  7  2  1  0
  2  1  1  0
M  END
$$$$
