A71EV2A-x4313_A_201_1_A71EV2A-x0911+A+147+1__LIG
     RDKit          3D

 20 21  0  0  0  0  0  0  0  0999 V2000
   11.5500   15.8050   23.9700 O   0  0  0  0  0  0  0  0  0  0  0  0
   11.1030   15.5060   22.8690 C   0  0  0  0  0  0  0  0  0  0  0  0
   11.7460   15.7370   21.5320 C   0  0  0  0  0  0  0  0  0  0  0  0
   10.8990   14.8560   20.6000 C   0  0  2  0  0  0  0  0  0  0  0  0
   10.8750   15.3010   19.1490 C   0  0  0  0  0  0  0  0  0  0  0  0
   10.3900   16.3910   18.8220 O   0  0  0  0  0  0  0  0  0  0  0  0
   11.3270   14.4250   18.2790 N   0  0  0  0  0  0  0  0  0  0  0  0
    9.5210   14.9020   21.2440 C   0  0  0  0  0  0  0  0  0  0  0  0
    9.8970   14.9400   22.6580 N   0  0  0  0  0  0  0  0  0  0  0  0
    9.1090   14.3000   23.7100 C   0  0  0  0  0  0  0  0  0  0  0  0
    9.3530   12.7940   23.7850 C   0  0  1  0  0  0  0  0  0  0  0  0
   10.7580   12.5240   24.3070 C   0  0  0  0  0  0  0  0  0  0  0  0
    8.2980   12.0470   24.5820 C   0  0  0  0  0  0  0  0  0  0  0  0
    8.1890   10.6670   24.4320 C   0  0  0  0  0  0  0  0  0  0  0  0
    8.8970   10.1390   23.3880 O   0  0  0  0  0  0  0  0  0  0  0  0
    9.6070    8.9350   23.6120 C   0  0  0  0  0  0  0  0  0  0  0  0
    7.4590   12.6770   25.4940 C   0  0  0  0  0  0  0  0  0  0  0  0
    6.5860   11.9420   26.2750 C   0  0  0  0  0  0  0  0  0  0  0  0
    6.5350   10.5790   26.1580 C   0  0  0  0  0  0  0  0  0  0  0  0
    7.3250    9.9300   25.2250 C   0  0  0  0  0  0  0  0  0  0  0  0
 16 15  1  0
 15 14  1  0
 14 20  2  0
 20 19  1  0
 19 18  2  0
 18 17  1  0
 17 13  2  0
 14 13  1  0
 13 11  1  0
 11 12  1  1
 11 10  1  0
 10  9  1  0
  9  8  1  0
  8  4  1  0
  4  5  1  6
  7  5  1  0
  6  5  2  0
  4  3  1  0
  3  2  1  0
  9  2  1  0
  2  1  2  0
M  END
$$$$
