A71EV2A-x5283_A_201_3_A71EV2A-x0911+A+147+1__LIG
     RDKit          3D

 23 25  0  0  0  0  0  0  0  0999 V2000
   10.2560   16.6780   19.1700 O   0  0  0  0  0  0  0  0  0  0  0  0
   10.5870   15.5100   19.4270 C   0  0  0  0  0  0  0  0  0  0  0  0
   10.9550   14.6490   18.4800 N   0  0  0  0  0  0  0  0  0  0  0  0
   10.5930   14.9900   20.8520 C   0  0  1  0  0  0  0  0  0  0  0  0
   11.7600   15.5590   21.6630 C   0  0  0  0  0  0  0  0  0  0  0  0
   11.7270   14.9740   23.0850 C   0  0  0  0  0  0  0  0  0  0  0  0
   10.3860   15.2190   23.7360 C   0  0  0  0  0  0  0  0  0  0  0  0
    9.2600   15.2940   21.5350 C   0  0  0  0  0  0  0  0  0  0  0  0
    9.2600   14.7640   22.8990 N   0  0  0  0  0  0  0  0  0  0  0  0
    8.4060   13.7470   23.2390 C   0  0  0  0  0  0  0  0  0  0  0  0
    7.5510   13.3610   22.4640 O   0  0  0  0  0  0  0  0  0  0  0  0
    8.5340   13.2710   24.5220 N   0  0  0  0  0  0  0  0  0  0  0  0
    7.6740   12.2140   24.9770 C   0  0  0  0  0  0  0  0  0  0  0  0
    7.9550   10.8790   24.6460 C   0  0  0  0  0  0  0  0  0  0  0  0
    9.3540   10.6020   23.6050 S   0  0  0  0  0  0  0  0  0  0  0  0
    9.3690    8.8240   23.4300 C   0  0  0  0  0  0  0  0  0  0  0  0
    6.6020   12.5580   25.8080 C   0  0  0  0  0  0  0  0  0  0  0  0
    6.2290   13.8140   26.2690 N   0  0  0  0  0  0  0  0  0  0  0  0
    5.2270   13.7050   27.0850 C   0  0  0  0  0  0  0  0  0  0  0  0
    4.6180   12.1110   27.3750 S   0  0  0  0  0  0  0  0  0  0  0  0
    5.8250   11.4940   26.2920 C   0  0  0  0  0  0  0  0  0  0  0  0
    6.0730   10.1640   25.9510 C   0  0  0  0  0  0  0  0  0  0  0  0
    7.1490    9.8540   25.1360 C   0  0  0  0  0  0  0  0  0  0  0  0
 16 15  1  0
 15 14  1  0
 14 23  2  0
 23 22  1  0
 22 21  2  0
 21 20  1  0
 20 19  1  0
 19 18  2  0
 18 17  1  0
 21 17  1  0
 17 13  2  0
 14 13  1  0
 13 12  1  0
 12 10  1  0
 11 10  2  0
 10  9  1  0
  9  7  1  0
  7  6  1  0
  6  5  1  0
  5  4  1  0
  4  2  1  6
  3  2  1  0
  2  1  2  0
  8  4  1  0
  9  8  1  0
M  END
$$$$
