A71EV2A-x5219_C_201_3_A71EV2A-x0911+A+147+1__LIG
     RDKit          3D

 19 20  0  0  0  0  0  0  0  0999 V2000
   10.2400   16.6560   19.2560 O   0  0  0  0  0  0  0  0  0  0  0  0
   10.6560   15.5030   19.4540 C   0  0  0  0  0  0  0  0  0  0  0  0
   10.9700   14.6640   18.4810 N   0  0  0  0  0  0  0  0  0  0  0  0
   10.7270   14.9260   20.8570 C   0  0  1  0  0  0  0  0  0  0  0  0
   11.7130   15.7180   21.7260 C   0  0  0  0  0  0  0  0  0  0  0  0
   11.6630   15.2320   23.1810 C   0  0  0  0  0  0  0  0  0  0  0  0
   10.2340   15.3260   23.7260 C   0  0  0  0  0  0  0  0  0  0  0  0
    9.3190   15.0880   21.4520 C   0  0  0  0  0  0  0  0  0  0  0  0
    9.2970   14.6150   22.8380 N   0  0  0  0  0  0  0  0  0  0  0  0
    8.3700   13.7250   23.2660 C   0  0  0  0  0  0  0  0  0  0  0  0
    7.5140   13.2350   22.5610 O   0  0  0  0  0  0  0  0  0  0  0  0
    8.5210   13.4580   24.5890 O   0  0  0  0  0  0  0  0  0  0  0  0
    7.5890   12.5010   25.1760 C   0  0  1  0  0  0  0  0  0  0  0  0
    8.4320   11.3710   25.7660 C   0  0  2  0  0  0  0  0  0  0  0  0
    9.2960   10.6600   24.7250 C   0  0  0  0  0  0  0  0  0  0  0  0
    6.7920   13.2200   26.2480 C   0  0  0  0  0  0  0  0  0  0  0  0
    5.8730   12.2530   27.0160 C   0  0  0  0  0  0  0  0  0  0  0  0
    6.6500   11.0620   27.5710 C   0  0  0  0  0  0  0  0  0  0  0  0
    7.5070   10.3900   26.4870 C   0  0  0  0  0  0  0  0  0  0  0  0
 14 15  1  6
 14 19  1  0
 19 18  1  0
 18 17  1  0
 17 16  1  0
 16 13  1  0
 14 13  1  0
 13 12  1  1
 12 10  1  0
 11 10  2  0
 10  9  1  0
  9  7  1  0
  7  6  1  0
  6  5  1  0
  5  4  1  0
  4  2  1  6
  3  2  1  0
  2  1  2  0
  8  4  1  0
  9  8  1  0
M  END
$$$$
