XX01ZVNS2B-x4114_B_203_6_XX01ZVNS2B-x4590+B+203+1__LIG
     RDKit          3D

 28 31  0  0  0  0  0  0  0  0999 V2000
  -10.3830    3.9650  -18.1130 Cl  0  0  0  0  0  0  0  0  0  0  0  0
   -8.9140    4.3270  -17.2410 C   0  0  0  0  0  0  0  0  0  0  0  0
   -8.8950    4.2150  -15.8580 C   0  0  0  0  0  0  0  0  0  0  0  0
   -7.8150    4.7590  -17.9480 C   0  0  0  0  0  0  0  0  0  0  0  0
   -6.6610    5.1290  -17.2690 C   0  0  0  0  0  0  0  0  0  0  0  0
   -5.4880    5.7110  -18.0310 C   0  0  0  0  0  0  0  0  0  0  0  0
   -4.1370    5.0530  -18.0170 C   0  0  0  0  0  0  0  0  0  0  0  0
   -4.3290    6.3410  -17.3130 C   0  0  0  0  0  0  0  0  0  0  0  0
   -6.6410    5.0140  -15.8820 C   0  0  0  0  0  0  0  0  0  0  0  0
   -7.7360    4.5480  -15.1600 C   0  0  0  0  0  0  0  0  0  0  0  0
   -7.6160    4.3420  -13.6540 C   0  0  2  0  0  0  0  0  0  0  0  0
   -6.7100    3.1540  -13.4010 C   0  0  0  0  0  0  0  0  0  0  0  0
   -5.5640    3.4560  -12.8040 N   0  0  0  0  0  0  0  0  0  0  0  0
   -4.5200    2.4710  -12.5720 C   0  0  0  0  0  0  0  0  0  0  0  0
   -3.1490    3.0830  -12.7460 C   0  0  0  0  0  0  0  0  0  0  0  0
   -2.3510    2.3940  -13.8080 C   0  0  0  0  0  0  0  0  0  0  0  0
   -3.1000    2.3240  -14.9830 F   0  0  0  0  0  0  0  0  0  0  0  0
   -7.0380    2.0070  -13.6980 O   0  0  0  0  0  0  0  0  0  0  0  0
   -8.7970    4.1350  -12.8380 N   0  0  0  0  0  0  0  0  0  0  0  0
   -8.6870    4.1300  -11.4360 C   0  0  0  0  0  0  0  0  0  0  0  0
   -8.9790    2.9760  -10.7100 C   0  0  0  0  0  0  0  0  0  0  0  0
   -8.9290    2.9880   -9.3160 C   0  0  0  0  0  0  0  0  0  0  0  0
   -9.1890    1.8770   -8.3430 C   0  0  0  0  0  0  0  0  0  0  0  0
   -8.8310    2.4840   -7.0440 N   0  0  0  0  0  0  0  0  0  0  0  0
   -8.6820    3.9490   -7.1580 C   0  0  0  0  0  0  0  0  0  0  0  0
   -8.6000    4.1550   -8.6420 C   0  0  0  0  0  0  0  0  0  0  0  0
   -8.2850    5.3000   -9.3690 C   0  0  0  0  0  0  0  0  0  0  0  0
   -8.3150    5.2880  -10.7550 C   0  0  0  0  0  0  0  0  0  0  0  0
 18 12  2  0
 13 12  1  0
 14 13  1  0
 15 14  1  0
 16 15  1  0
 17 16  1  0
 12 11  1  0
 11 19  1  6
 20 19  1  0
 20 28  2  0
 28 27  1  0
 27 26  2  0
 26 22  1  0
 22 21  2  0
 21 20  1  0
 23 22  1  0
 24 23  1  0
 25 24  1  0
 26 25  1  0
 11 10  1  0
 10  3  1  0
  3  2  2  0
  2  1  1  0
  4  2  1  0
  5  4  2  0
  6  5  1  0
  6  8  1  0
  8  7  1  0
  7  6  1  0
  9  5  1  0
 10  9  2  0
M  END
$$$$
