A71EV2A-x4570_A_201_1_A71EV2A-x0911+A+147+1__LIG
     RDKit          3D

 20 21  0  0  0  0  0  0  0  0999 V2000
    9.8610    9.0530   23.6780 F   0  0  0  0  0  0  0  0  0  0  0  0
    8.9590    9.9200   24.1970 C   0  0  0  0  0  0  0  0  0  0  0  0
    7.8100    9.4410   24.7580 C   0  0  0  0  0  0  0  0  0  0  0  0
    6.9170   10.2540   25.3270 N   0  0  0  0  0  0  0  0  0  0  0  0
    7.1810   11.5660   25.3170 C   0  0  0  0  0  0  0  0  0  0  0  0
    9.2300   11.2600   24.1720 C   0  0  0  0  0  0  0  0  0  0  0  0
    8.3100   12.1310   24.7440 C   0  0  0  0  0  0  0  0  0  0  0  0
    8.5030   13.6350   24.6160 C   0  0  2  0  0  0  0  0  0  0  0  0
    7.4750   14.4810   25.3660 C   0  0  0  0  0  0  0  0  0  0  0  0
    8.5120   14.0180   23.1460 C   0  0  0  0  0  0  0  0  0  0  0  0
    7.7100   13.5220   22.3730 O   0  0  0  0  0  0  0  0  0  0  0  0
    9.4130   14.9440   22.7400 N   0  0  0  0  0  0  0  0  0  0  0  0
    9.4210   15.4140   21.3510 C   0  0  0  0  0  0  0  0  0  0  0  0
   10.8010   15.1900   20.7280 C   0  0  1  0  0  0  0  0  0  0  0  0
   10.7660   15.7010   19.2980 C   0  0  0  0  0  0  0  0  0  0  0  0
   10.5580   16.8940   19.0550 O   0  0  0  0  0  0  0  0  0  0  0  0
   10.9370   14.7890   18.3510 N   0  0  0  0  0  0  0  0  0  0  0  0
   11.8260   15.9770   21.5610 C   0  0  0  0  0  0  0  0  0  0  0  0
   11.8100   15.5280   23.0210 C   0  0  0  0  0  0  0  0  0  0  0  0
   10.4040   15.6160   23.6010 C   0  0  0  0  0  0  0  0  0  0  0  0
  8  9  1  1
 10  8  1  0
 11 10  2  0
 12 10  1  0
 12 20  1  0
 20 19  1  0
 19 18  1  0
 18 14  1  0
 14 15  1  6
 17 15  1  0
 16 15  2  0
 14 13  1  0
 13 12  1  0
  8  7  1  0
  7  5  1  0
  5  4  2  0
  4  3  1  0
  3  2  2  0
  2  1  1  0
  6  2  1  0
  7  6  2  0
M  END
$$$$
