A71EV2A-x2448_E_246_1_A71EV2A-x0541+A+147+1__LIG
     RDKit          3D

 12 12  0  0  0  0  0  0  0  0999 V2000
    7.1950   14.2250    5.8790 O   0  0  0  0  0  0  0  0  0  0  0  0
    7.0220   13.2910    4.8120 S   0  0  0  0  0  0  0  0  0  0  0  0
    7.3110   11.9060    5.0100 O   0  0  0  0  0  0  0  0  0  0  0  0
    7.8350   13.8200    3.5010 N   0  0  0  0  0  0  0  0  0  0  0  0
    8.5000   12.8220    2.6550 C   0  0  0  0  0  0  0  0  0  0  0  0
    8.4750   15.1400    3.5730 C   0  0  0  0  0  0  0  0  0  0  0  0
    5.3840   13.4510    4.1760 C   0  0  0  0  0  0  0  0  0  0  0  0
    4.6370   12.3340    3.8470 C   0  0  0  0  0  0  0  0  0  0  0  0
    3.4050   12.4080    3.3270 N   0  0  0  0  0  0  0  0  0  0  0  0
    2.9020   13.6290    3.1060 C   0  0  0  0  0  0  0  0  0  0  0  0
    3.5830   14.7970    3.3960 C   0  0  0  0  0  0  0  0  0  0  0  0
    4.8480   14.7070    3.9510 C   0  0  0  0  0  0  0  0  0  0  0  0
  6  4  1  0
  5  4  1  0
  4  2  1  0
  3  2  2  0
  2  1  2  0
  7  2  1  0
  7 12  2  0
 12 11  1  0
 11 10  2  0
 10  9  1  0
  9  8  2  0
  8  7  1  0
M  END
$$$$
