XX01ZVNS2B-x1288_B_301_1_XX01ZVNS2B-x4590+B+203+1__LIG
     RDKit          3D

 23 25  0  0  0  0  0  0  0  0999 V2000
   -3.4200    8.6210  -17.5750 C   0  0  0  0  0  0  0  0  0  0  0  0
   -3.9420    7.3730  -16.9040 C   0  0  0  0  0  0  0  0  0  0  0  0
   -5.1780    6.8350  -17.2440 C   0  0  0  0  0  0  0  0  0  0  0  0
   -5.6500    5.6900  -16.5940 C   0  0  0  0  0  0  0  0  0  0  0  0
   -6.9680    5.0670  -16.9420 C   0  0  0  0  0  0  0  0  0  0  0  0
   -7.1960    4.6600  -18.2610 C   0  0  0  0  0  0  0  0  0  0  0  0
   -8.3770    4.0490  -18.6380 C   0  0  0  0  0  0  0  0  0  0  0  0
   -9.3580    3.8140  -17.7020 C   0  0  0  0  0  0  0  0  0  0  0  0
   -9.1600    4.1870  -16.3880 C   0  0  0  0  0  0  0  0  0  0  0  0
   -7.9710    4.8070  -15.9860 C   0  0  0  0  0  0  0  0  0  0  0  0
   -7.8600    5.1900  -14.5340 C   0  0  0  0  0  0  0  0  0  0  0  0
   -7.5050    6.3130  -14.2080 O   0  0  0  0  0  0  0  0  0  0  0  0
   -8.1830    4.2350  -13.6130 N   0  0  0  0  0  0  0  0  0  0  0  0
   -8.1810    4.4320  -12.2190 C   0  0  0  0  0  0  0  0  0  0  0  0
   -8.3680    3.4490  -11.2390 C   0  0  0  0  0  0  0  0  0  0  0  0
   -8.3080    3.9500  -10.0160 N   0  0  0  0  0  0  0  0  0  0  0  0
   -8.0800    5.2900  -10.1910 N   0  0  0  0  0  0  0  0  0  0  0  0
   -7.9650    6.1590   -9.0210 C   0  0  0  0  0  0  0  0  0  0  0  0
   -8.0000    5.6190  -11.5030 C   0  0  0  0  0  0  0  0  0  0  0  0
   -4.8000    5.1310  -15.6410 C   0  0  0  0  0  0  0  0  0  0  0  0
   -3.6020    5.6330  -15.2980 N   0  0  0  0  0  0  0  0  0  0  0  0
   -3.2120    6.7070  -15.9220 C   0  0  0  0  0  0  0  0  0  0  0  0
   -2.0080    7.1900  -15.5590 F   0  0  0  0  0  0  0  0  0  0  0  0
  1  2  1  0
  2  3  2  0
  3  4  1  0
  4  5  1  0
  5  6  2  0
  6  7  1  0
  7  8  2  0
  8  9  1  0
  9 10  2  0
 10 11  1  0
 11 12  2  0
 11 13  1  0
 13 14  1  0
 14 15  1  0
 15 16  2  0
 16 17  1  0
 17 18  1  0
 17 19  1  0
  4 20  2  0
 20 21  1  0
 21 22  2  0
 22 23  1  0
  2 22  1  0
  5 10  1  0
 14 19  2  0
M  END
$$$$
