A71EV2A-x4673_A_201_1_A71EV2A-x0911+A+147+1__LIG
     RDKit          3D

 22 24  0  0  0  0  0  0  0  0999 V2000
    9.5720   10.0880   23.9830 Br  0  0  0  0  0  0  0  0  0  0  0  0
    8.1270   10.7520   25.0090 C   0  0  0  0  0  0  0  0  0  0  0  0
    7.2030    9.8260   25.4560 C   0  0  0  0  0  0  0  0  0  0  0  0
    6.1020   10.2960   26.1200 C   0  0  0  0  0  0  0  0  0  0  0  0
    5.0200    9.5880   26.5930 O   0  0  0  0  0  0  0  0  0  0  0  0
    4.2590   10.5360   27.3500 C   0  0  0  0  0  0  0  0  0  0  0  0
    4.7420   11.8400   27.0260 O   0  0  0  0  0  0  0  0  0  0  0  0
    5.9240   11.6320   26.3480 C   0  0  0  0  0  0  0  0  0  0  0  0
    6.8530   12.5620   25.9160 C   0  0  0  0  0  0  0  0  0  0  0  0
    7.9890   12.1270   25.2300 C   0  0  0  0  0  0  0  0  0  0  0  0
    9.0390   13.1220   24.7890 C   0  0  0  0  0  0  0  0  0  0  0  0
    8.7990   13.6490   23.3850 C   0  0  0  0  0  0  0  0  0  0  0  0
    7.9110   13.2150   22.6760 O   0  0  0  0  0  0  0  0  0  0  0  0
    9.6360   14.6140   22.9560 N   0  0  0  0  0  0  0  0  0  0  0  0
   10.7230   15.2090   23.7500 C   0  0  0  0  0  0  0  0  0  0  0  0
   12.0500   15.0870   23.0150 C   0  0  0  0  0  0  0  0  0  0  0  0
   11.9350   15.6790   21.6090 C   0  0  0  0  0  0  0  0  0  0  0  0
    9.5110   15.1230   21.5840 C   0  0  0  0  0  0  0  0  0  0  0  0
   10.8340   14.9560   20.8320 C   0  0  1  0  0  0  0  0  0  0  0  0
   10.7210   15.4730   19.4090 C   0  0  0  0  0  0  0  0  0  0  0  0
   10.2980   16.6100   19.1730 O   0  0  0  0  0  0  0  0  0  0  0  0
   11.0180   14.5930   18.4460 N   0  0  0  0  0  0  0  0  0  0  0  0
 22 20  1  0
 21 20  2  0
 19 20  1  6
 19 17  1  0
 17 16  1  0
 16 15  1  0
 15 14  1  0
 14 12  1  0
 13 12  2  0
 12 11  1  0
 11 10  1  0
 10  9  2  0
  9  8  1  0
  8  4  2  0
  4  3  1  0
  3  2  2  0
 10  2  1  0
  2  1  1  0
  5  4  1  0
  6  5  1  0
  7  6  1  0
  8  7  1  0
 18 14  1  0
 19 18  1  0
M  END
$$$$
