A71EV2A-x5231_A_201_3_A71EV2A-x0911+A+147+1__LIG
     RDKit          3D

 20 21  0  0  0  0  0  0  0  0999 V2000
   10.1090   16.5360   19.0830 O   0  0  0  0  0  0  0  0  0  0  0  0
   10.4790   15.3890   19.3360 C   0  0  0  0  0  0  0  0  0  0  0  0
   10.9220   14.5610   18.4060 N   0  0  0  0  0  0  0  0  0  0  0  0
   10.4370   14.8390   20.7530 C   0  0  1  0  0  0  0  0  0  0  0  0
   11.4550   15.5350   21.6640 C   0  0  0  0  0  0  0  0  0  0  0  0
   11.4010   14.9440   23.0730 C   0  0  0  0  0  0  0  0  0  0  0  0
    9.9890   15.0110   23.6370 C   0  0  0  0  0  0  0  0  0  0  0  0
    9.0580   15.0520   21.3870 C   0  0  0  0  0  0  0  0  0  0  0  0
    9.0170   14.4190   22.7070 N   0  0  0  0  0  0  0  0  0  0  0  0
    7.9170   13.7650   23.1080 C   0  0  0  0  0  0  0  0  0  0  0  0
    7.0670   13.3560   22.3620 O   0  0  0  0  0  0  0  0  0  0  0  0
    7.9150   13.5980   24.4190 O   0  0  0  0  0  0  0  0  0  0  0  0
    6.7410   12.9740   24.9970 C   0  0  1  0  0  0  0  0  0  0  0  0
    7.2250   12.0060   26.0680 C   0  0  2  0  0  0  0  0  0  0  0  0
    8.1050   10.5410   25.4220 S   0  0  0  0  0  0  0  0  0  0  0  0
    8.9010   10.7490   23.7400 C   0  0  0  0  0  0  0  0  0  0  0  0
    5.9350   14.1150   25.5890 C   0  0  0  0  0  0  0  0  0  0  0  0
    4.7920   13.6270   26.4770 C   0  0  0  0  0  0  0  0  0  0  0  0
    5.2890   12.6650   27.5360 C   0  0  0  0  0  0  0  0  0  0  0  0
    6.0570   11.5070   26.9100 C   0  0  0  0  0  0  0  0  0  0  0  0
 16 15  1  0
 14 15  1  6
 14 20  1  0
 20 19  1  0
 19 18  1  0
 18 17  1  0
 17 13  1  0
 14 13  1  0
 13 12  1  1
 12 10  1  0
 11 10  2  0
 10  9  1  0
  9  7  1  0
  7  6  1  0
  6  5  1  0
  5  4  1  0
  4  2  1  6
  3  2  1  0
  2  1  2  0
  8  4  1  0
  9  8  1  0
M  END
$$$$
