A71EV2A-x4012_A_201_1_A71EV2A-x0911+A+147+1__LIG
     RDKit          3D

 20 21  0  0  0  0  0  0  0  0999 V2000
   10.3060   16.6970   19.2290 O   0  0  0  0  0  0  0  0  0  0  0  0
   10.6380   15.5320   19.4810 C   0  0  0  0  0  0  0  0  0  0  0  0
   10.9800   14.6620   18.5310 N   0  0  0  0  0  0  0  0  0  0  0  0
   10.6250   14.9990   20.9030 C   0  0  1  0  0  0  0  0  0  0  0  0
   11.7410   15.6080   21.7760 C   0  0  0  0  0  0  0  0  0  0  0  0
   11.7250   14.9760   23.1740 C   0  0  0  0  0  0  0  0  0  0  0  0
   10.3610   15.1280   23.8210 C   0  0  0  0  0  0  0  0  0  0  0  0
    9.2610   15.2290   21.5630 C   0  0  0  0  0  0  0  0  0  0  0  0
    9.2770   14.6810   22.9250 N   0  0  0  0  0  0  0  0  0  0  0  0
    8.3590   13.7150   23.2430 C   0  0  0  0  0  0  0  0  0  0  0  0
    7.5760   13.2730   22.4250 O   0  0  0  0  0  0  0  0  0  0  0  0
    8.3620   13.2760   24.5290 N   0  0  0  0  0  0  0  0  0  0  0  0
    7.4930   12.2700   25.0120 C   0  0  0  0  0  0  0  0  0  0  0  0
    7.7280   10.9260   24.5960 C   0  0  0  0  0  0  0  0  0  0  0  0
    8.7930   10.7640   23.7540 O   0  0  0  0  0  0  0  0  0  0  0  0
    9.1140    9.4240   23.3270 C   0  0  0  0  0  0  0  0  0  0  0  0
    6.4660   12.5320   25.9210 C   0  0  0  0  0  0  0  0  0  0  0  0
    5.7080   11.4800   26.4170 C   0  0  0  0  0  0  0  0  0  0  0  0
    5.9400   10.1840   26.0020 C   0  0  0  0  0  0  0  0  0  0  0  0
    6.9510    9.8940   25.0920 C   0  0  0  0  0  0  0  0  0  0  0  0
 16 15  1  0
 15 14  1  0
 14 20  2  0
 20 19  1  0
 19 18  2  0
 18 17  1  0
 17 13  2  0
 14 13  1  0
 13 12  1  0
 12 10  1  0
 11 10  2  0
 10  9  1  0
  9  7  1  0
  7  6  1  0
  6  5  1  0
  5  4  1  0
  4  2  1  6
  3  2  1  0
  2  1  2  0
  8  4  1  0
  9  8  1  0
M  END
$$$$
