A71EV2A-x4464_A_201_1_A71EV2A-x0911+A+147+1__LIG
     RDKit          3D

 20 21  0  0  0  0  0  0  0  0999 V2000
   10.4620   16.7240   19.2400 O   0  0  0  0  0  0  0  0  0  0  0  0
   10.8100   15.5530   19.4070 C   0  0  0  0  0  0  0  0  0  0  0  0
   11.0420   14.7290   18.4050 N   0  0  0  0  0  0  0  0  0  0  0  0
   10.9420   14.9600   20.8010 C   0  0  1  0  0  0  0  0  0  0  0  0
   12.0360   15.6630   21.6280 C   0  0  0  0  0  0  0  0  0  0  0  0
   12.1840   15.0330   23.0200 C   0  0  0  0  0  0  0  0  0  0  0  0
   10.8540   15.0000   23.7580 C   0  0  0  0  0  0  0  0  0  0  0  0
    9.6460   15.0830   21.6080 C   0  0  0  0  0  0  0  0  0  0  0  0
    9.7990   14.4210   22.9080 N   0  0  0  0  0  0  0  0  0  0  0  0
    8.9970   13.3930   23.2670 C   0  0  0  0  0  0  0  0  0  0  0  0
    8.0410   13.0350   22.5870 O   0  0  0  0  0  0  0  0  0  0  0  0
    9.3380   12.6990   24.5700 C   0  0  0  0  0  0  0  0  0  0  0  0
    8.2800   11.6960   24.9750 C   0  0  0  0  0  0  0  0  0  0  0  0
    8.4020   10.3550   24.6180 C   0  0  0  0  0  0  0  0  0  0  0  0
    9.4980    9.8700   23.7160 C   0  0  0  0  0  0  0  0  0  0  0  0
    7.2080   12.0580   25.7880 C   0  0  0  0  0  0  0  0  0  0  0  0
    6.9560   13.4840   26.1860 C   0  0  0  0  0  0  0  0  0  0  0  0
    6.3430   11.1480   26.2550 N   0  0  0  0  0  0  0  0  0  0  0  0
    6.5850    9.8940   25.8770 C   0  0  0  0  0  0  0  0  0  0  0  0
    7.5500    9.4340   25.0770 N   0  0  0  0  0  0  0  0  0  0  0  0
 15 14  1  0
 14 20  2  0
 20 19  1  0
 19 18  2  0
 18 16  1  0
 17 16  1  0
 16 13  2  0
 14 13  1  0
 13 12  1  0
 12 10  1  0
 11 10  2  0
 10  9  1  0
  9  7  1  0
  7  6  1  0
  6  5  1  0
  5  4  1  0
  4  2  1  6
  3  2  1  0
  2  1  2  0
  8  4  1  0
  9  8  1  0
M  END
$$$$
