A71EV2A-x5177_A_201_3_A71EV2A-x0911+A+147+1__LIG
     RDKit          3D

 21 23  0  0  0  0  0  0  0  0999 V2000
   10.4990   16.7920   19.3030 O   0  0  0  0  0  0  0  0  0  0  0  0
   10.7930   15.5990   19.3780 C   0  0  0  0  0  0  0  0  0  0  0  0
   10.9410   14.8300   18.3150 N   0  0  0  0  0  0  0  0  0  0  0  0
   11.0060   14.9270   20.7240 C   0  0  2  0  0  0  0  0  0  0  0  0
    9.6260   14.5640   21.2790 C   0  0  0  0  0  0  0  0  0  0  0  0
   11.7300   15.8570   21.7010 C   0  0  0  0  0  0  0  0  0  0  0  0
   12.0290   15.0440   22.9550 C   0  0  2  0  0  0  0  0  0  0  0  0
   10.9640   14.0870   23.3780 C   0  0  1  0  0  0  0  0  0  0  0  0
   11.2720   15.2790   24.2260 C   0  0  0  0  0  0  0  0  0  0  0  0
    9.6790   14.0460   22.6490 N   0  0  0  0  0  0  0  0  0  0  0  0
    8.5470   13.5900   23.2240 C   0  0  0  0  0  0  0  0  0  0  0  0
    7.6480   13.1240   22.5530 O   0  0  0  0  0  0  0  0  0  0  0  0
    8.4230   13.6620   24.7350 C   0  0  0  0  0  0  0  0  0  0  0  0
    7.6730   12.4650   25.2730 C   0  0  0  0  0  0  0  0  0  0  0  0
    8.1480   11.1640   25.0950 C   0  0  0  0  0  0  0  0  0  0  0  0
    9.6760   10.9830   24.2380 S   0  0  0  0  0  0  0  0  0  0  0  0
    9.3890    9.5320   23.3020 C   0  0  0  0  0  0  0  0  0  0  0  0
    6.4460   12.6360   25.9060 C   0  0  0  0  0  0  0  0  0  0  0  0
    5.7110   11.5460   26.3390 C   0  0  0  0  0  0  0  0  0  0  0  0
    6.1890   10.2710   26.1550 C   0  0  0  0  0  0  0  0  0  0  0  0
    7.4080   10.0700   25.5370 C   0  0  0  0  0  0  0  0  0  0  0  0
 17 16  1  0
 16 15  1  0
 15 21  2  0
 21 20  1  0
 20 19  2  0
 19 18  1  0
 18 14  2  0
 15 14  1  0
 14 13  1  0
 13 11  1  0
 12 11  2  0
 11 10  1  0
 10  5  1  0
  5  4  1  0
  4  2  1  6
  3  2  1  0
  2  1  2  0
  6  4  1  0
  7  6  1  6
  7  9  1  0
  8  9  1  1
  8  7  1  0
 10  8  1  0
M  END
$$$$
