A71EV2A-x5039_A_201_2_A71EV2A-x0911+A+147+1__LIG
     RDKit          3D

 20 21  0  0  0  0  0  0  0  0999 V2000
   10.2690   16.6650   19.2090 O   0  0  0  0  0  0  0  0  0  0  0  0
   10.6400   15.5140   19.4450 C   0  0  0  0  0  0  0  0  0  0  0  0
   11.0020   14.6690   18.4900 N   0  0  0  0  0  0  0  0  0  0  0  0
   10.6750   14.9750   20.8640 C   0  0  1  0  0  0  0  0  0  0  0  0
   11.7250   15.7190   21.7120 C   0  0  0  0  0  0  0  0  0  0  0  0
   11.7410   15.1990   23.1550 C   0  0  0  0  0  0  0  0  0  0  0  0
   10.3640   15.3230   23.7670 C   0  0  0  0  0  0  0  0  0  0  0  0
    9.3030   15.1510   21.5260 C   0  0  0  0  0  0  0  0  0  0  0  0
    9.3440   14.6890   22.9160 N   0  0  0  0  0  0  0  0  0  0  0  0
    8.4850   13.7380   23.3480 C   0  0  0  0  0  0  0  0  0  0  0  0
    7.6260   13.2670   22.6210 O   0  0  0  0  0  0  0  0  0  0  0  0
    8.5870   13.3350   24.8080 C   0  0  0  0  0  0  0  0  0  0  0  0
    7.7350   12.1300   25.1410 C   0  0  0  0  0  0  0  0  0  0  0  0
    8.0120   10.8060   24.7270 C   0  0  0  0  0  0  0  0  0  0  0  0
    9.4500   10.5480   23.7580 S   0  0  0  0  0  0  0  0  0  0  0  0
    9.4460    8.7570   23.5340 C   0  0  0  0  0  0  0  0  0  0  0  0
    6.6240   12.2400   25.9610 C   0  0  0  0  0  0  0  0  0  0  0  0
    5.8570   11.2130   26.3280 N   0  0  0  0  0  0  0  0  0  0  0  0
    6.2160   10.0360   25.8440 C   0  0  0  0  0  0  0  0  0  0  0  0
    7.2580    9.7640   25.0560 N   0  0  0  0  0  0  0  0  0  0  0  0
 16 15  1  0
 15 14  1  0
 14 20  2  0
 20 19  1  0
 19 18  2  0
 18 17  1  0
 17 13  2  0
 14 13  1  0
 13 12  1  0
 12 10  1  0
 11 10  2  0
 10  9  1  0
  9  7  1  0
  7  6  1  0
  6  5  1  0
  5  4  1  0
  4  2  1  6
  3  2  1  0
  2  1  2  0
  8  4  1  0
  9  8  1  0
M  END
$$$$
