A71EV2A-x3908_A_201_1_A71EV2A-x0911+A+147+1__LIG
     RDKit          3D

 28 30  0  0  0  0  0  0  0  0999 V2000
   10.1160   16.5350   18.9090 O   0  0  0  0  0  0  0  0  0  0  0  0
   10.4610   15.4150   19.2940 C   0  0  0  0  0  0  0  0  0  0  0  0
   10.9820   14.5020   18.4930 N   0  0  0  0  0  0  0  0  0  0  0  0
   10.3070   15.0020   20.7480 C   0  0  1  0  0  0  0  0  0  0  0  0
   11.4700   15.5070   21.6120 C   0  0  0  0  0  0  0  0  0  0  0  0
   11.4950   14.7590   22.9410 C   0  0  0  0  0  0  0  0  0  0  0  0
   10.1590   14.8810   23.6740 C   0  0  0  0  0  0  0  0  0  0  0  0
    9.0290   15.3790   21.4950 C   0  0  0  0  0  0  0  0  0  0  0  0
    8.9930   14.6880   22.7900 N   0  0  0  0  0  0  0  0  0  0  0  0
    7.9220   13.8900   23.0480 C   0  0  0  0  0  0  0  0  0  0  0  0
    7.2130   13.4430   22.1690 O   0  0  0  0  0  0  0  0  0  0  0  0
    7.6800   13.5900   24.3800 N   0  0  0  0  0  0  0  0  0  0  0  0
    7.6810   12.2390   24.8290 C   0  0  0  0  0  0  0  0  0  0  0  0
    6.7850   11.8040   25.7960 C   0  0  0  0  0  0  0  0  0  0  0  0
    6.6410   10.4510   26.0260 C   0  0  0  0  0  0  0  0  0  0  0  0
    7.3790    9.5410   25.2920 C   0  0  0  0  0  0  0  0  0  0  0  0
    8.4810   11.3160   24.1600 C   0  0  0  0  0  0  0  0  0  0  0  0
    8.3300    9.9560   24.3750 C   0  0  0  0  0  0  0  0  0  0  0  0
    9.2050    8.9600   23.6550 C   0  0  0  0  0  0  0  0  0  0  0  0
    7.0920   14.6270   25.2230 C   0  0  0  0  0  0  0  0  0  0  0  0
    7.8980   14.8070   26.5090 C   0  0  0  0  0  0  0  0  0  0  0  0
    9.0550   14.4300   26.5780 O   0  0  0  0  0  0  0  0  0  0  0  0
    7.2620   15.3420   27.5670 N   0  0  0  0  0  0  0  0  0  0  0  0
    5.9300   15.9620   27.5390 C   0  0  0  0  0  0  0  0  0  0  0  0
    5.2410   15.8720   28.8960 C   0  0  0  0  0  0  0  0  0  0  0  0
    5.5510   14.5520   29.5930 C   0  0  0  0  0  0  0  0  0  0  0  0
    7.0500   14.3880   29.8210 C   0  0  0  0  0  0  0  0  0  0  0  0
    7.8600   15.2960   28.9070 C   0  0  0  0  0  0  0  0  0  0  0  0
 19 18  1  0
 18 16  2  0
 16 15  1  0
 15 14  2  0
 14 13  1  0
 13 12  1  0
 20 12  1  0
 21 20  1  0
 22 21  2  0
 23 21  1  0
 23 28  1  0
 28 27  1  0
 27 26  1  0
 26 25  1  0
 25 24  1  0
 24 23  1  0
 12 10  1  0
 11 10  2  0
 10  9  1  0
  9  7  1  0
  7  6  1  0
  6  5  1  0
  5  4  1  0
  4  2  1  6
  3  2  1  0
  2  1  2  0
  8  4  1  0
  9  8  1  0
 17 13  2  0
 18 17  1  0
M  END
$$$$
