XX01ZVNS2B-x4139_B_203_6_XX01ZVNS2B-x4590+B+203+1__LIG
     RDKit          3D

 28 30  0  0  0  0  0  0  0  0999 V2000
   -2.6670    2.6400  -13.3590 F   0  0  0  0  0  0  0  0  0  0  0  0
   -3.7210    3.1360  -14.0450 C   0  0  0  0  0  0  0  0  0  0  0  0
   -4.2390    2.0810  -14.7250 F   0  0  0  0  0  0  0  0  0  0  0  0
   -4.7260    3.7510  -12.9710 C   0  0  0  0  0  0  0  0  0  0  0  0
   -5.8240    2.8890  -12.5660 N   0  0  0  0  0  0  0  0  0  0  0  0
   -6.9180    2.6840  -13.3030 C   0  0  0  0  0  0  0  0  0  0  0  0
   -7.1810    1.6040  -13.8140 O   0  0  0  0  0  0  0  0  0  0  0  0
   -7.9250    3.9020  -13.4000 C   0  0  2  0  0  0  0  0  0  0  0  0
   -7.8780    4.4730  -14.8140 C   0  0  0  0  0  0  0  0  0  0  0  0
   -8.8470    4.1180  -15.7440 C   0  0  0  0  0  0  0  0  0  0  0  0
   -8.7110    4.5180  -17.0600 C   0  0  0  0  0  0  0  0  0  0  0  0
   -9.9410    4.0760  -18.2140 Cl  0  0  0  0  0  0  0  0  0  0  0  0
   -7.6330    5.2660  -17.4830 C   0  0  0  0  0  0  0  0  0  0  0  0
   -6.8040    5.2540  -15.2320 C   0  0  0  0  0  0  0  0  0  0  0  0
   -6.6680    5.6510  -16.5600 C   0  0  0  0  0  0  0  0  0  0  0  0
   -5.4950    6.4780  -17.0000 C   0  0  0  0  0  0  0  0  0  0  0  0
   -4.2750    5.8520  -16.6590 O   0  0  0  0  0  0  0  0  0  0  0  0
   -3.9260    4.8160  -17.5720 C   0  0  0  0  0  0  0  0  0  0  0  0
   -7.8510    4.9120  -12.3610 N   0  0  0  0  0  0  0  0  0  0  0  0
   -8.1370    4.7010  -11.0060 C   0  0  0  0  0  0  0  0  0  0  0  0
   -8.4570    3.4380  -10.5040 C   0  0  0  0  0  0  0  0  0  0  0  0
   -8.6830    3.2630   -9.1400 C   0  0  0  0  0  0  0  0  0  0  0  0
   -9.0510    2.0190   -8.3860 C   0  0  0  0  0  0  0  0  0  0  0  0
   -8.8150    2.4470   -7.0080 N   0  0  0  0  0  0  0  0  0  0  0  0
   -8.8180    3.9070   -6.8570 C   0  0  0  0  0  0  0  0  0  0  0  0
   -8.5900    4.3430   -8.2730 C   0  0  0  0  0  0  0  0  0  0  0  0
   -8.2970    5.6050   -8.7790 C   0  0  0  0  0  0  0  0  0  0  0  0
   -8.0670    5.7850  -10.1330 C   0  0  0  0  0  0  0  0  0  0  0  0
 18 17  1  0
 17 16  1  0
 16 15  1  0
 15 13  2  0
 13 11  1  0
 12 11  1  0
 11 10  2  0
 10  9  1  0
  9  8  1  0
  8 19  1  1
 20 19  1  0
 20 28  2  0
 28 27  1  0
 27 26  2  0
 26 22  1  0
 22 21  2  0
 21 20  1  0
 23 22  1  0
 24 23  1  0
 25 24  1  0
 26 25  1  0
  8  6  1  0
  7  6  2  0
  6  5  1  0
  5  4  1  0
  4  2  1  0
  3  2  1  0
  2  1  1  0
 14  9  2  0
 15 14  1  0
M  END
$$$$
