XX01ZVNS2B-x1745_B_301_1_XX01ZVNS2B-x4590+B+203+1__LIG
     RDKit          3D

 11 12  0  0  0  0  0  0  0  0999 V2000
   -5.3850    4.8960  -20.0210 N   0  0  0  0  0  0  0  0  0  0  0  0
   -5.4350    5.0140  -18.6540 C   0  0  0  0  0  0  0  0  0  0  0  0
   -4.3080    5.4490  -17.9550 C   0  0  0  0  0  0  0  0  0  0  0  0
   -4.2980    5.5890  -16.6200 N   0  0  0  0  0  0  0  0  0  0  0  0
   -5.3910    5.2880  -15.9390 C   0  0  0  0  0  0  0  0  0  0  0  0
   -6.6070    4.8250  -16.5200 C   0  0  0  0  0  0  0  0  0  0  0  0
   -7.7650    4.5030  -15.7760 C   0  0  0  0  0  0  0  0  0  0  0  0
   -8.8860    4.0500  -16.4090 C   0  0  0  0  0  0  0  0  0  0  0  0
   -8.9180    3.9120  -17.8050 C   0  0  0  0  0  0  0  0  0  0  0  0
   -7.8150    4.2170  -18.5540 C   0  0  0  0  0  0  0  0  0  0  0  0
   -6.6300    4.6850  -17.9330 C   0  0  0  0  0  0  0  0  0  0  0  0
  1  2  1  0
  2  3  2  0
  3  4  1  0
  4  5  2  0
  5  6  1  0
  6  7  2  0
  7  8  1  0
  8  9  2  0
  9 10  1  0
 10 11  2  0
  2 11  1  0
  6 11  1  0
M  END
$$$$
