A71EV2A-x4020_A_201_1_A71EV2A-x0911+A+147+1__LIG
     RDKit          3D

 19 20  0  0  0  0  0  0  0  0999 V2000
   10.2340   16.7990   19.0970 O   0  0  0  0  0  0  0  0  0  0  0  0
   10.5320   15.6350   19.3800 C   0  0  0  0  0  0  0  0  0  0  0  0
   10.8220   14.7240   18.4580 N   0  0  0  0  0  0  0  0  0  0  0  0
   10.5710   15.1650   20.8210 C   0  0  1  0  0  0  0  0  0  0  0  0
   11.7660   15.7710   21.5850 C   0  0  0  0  0  0  0  0  0  0  0  0
   11.7900   15.2990   23.0400 C   0  0  0  0  0  0  0  0  0  0  0  0
   10.4750   15.6260   23.7120 C   0  0  0  0  0  0  0  0  0  0  0  0
    9.2860   15.5820   21.5380 C   0  0  0  0  0  0  0  0  0  0  0  0
    9.3420   15.1090   22.9230 N   0  0  0  0  0  0  0  0  0  0  0  0
    8.5290   14.1060   23.3080 C   0  0  0  0  0  0  0  0  0  0  0  0
    7.6670   13.6450   22.5750 O   0  0  0  0  0  0  0  0  0  0  0  0
    8.7700   13.5610   24.7040 C   0  0  0  0  0  0  0  0  0  0  0  0
    8.2350   12.1600   24.8180 C   0  0  0  0  0  0  0  0  0  0  0  0
    7.1440   11.8670   25.6250 C   0  0  0  0  0  0  0  0  0  0  0  0
    6.6340   10.5790   25.6670 C   0  0  0  0  0  0  0  0  0  0  0  0
    7.2480    9.5700   24.9320 C   0  0  0  0  0  0  0  0  0  0  0  0
    8.8250   11.1360   24.0820 C   0  0  0  0  0  0  0  0  0  0  0  0
    8.3580    9.8350   24.1410 C   0  0  0  0  0  0  0  0  0  0  0  0
    9.0780    8.7280   23.4090 C   0  0  0  0  0  0  0  0  0  0  0  0
 19 18  1  0
 18 16  2  0
 16 15  1  0
 15 14  2  0
 14 13  1  0
 13 12  1  0
 12 10  1  0
 11 10  2  0
 10  9  1  0
  9  7  1  0
  7  6  1  0
  6  5  1  0
  5  4  1  0
  4  2  1  6
  3  2  1  0
  2  1  2  0
  8  4  1  0
  9  8  1  0
 17 13  2  0
 18 17  1  0
M  END
$$$$
