A71EV2A-x3510_A_201_1_A71EV2A-x0911+A+147+1__LIG
     RDKit          3D

 19 20  0  0  0  0  0  0  0  0999 V2000
   10.5290   16.7780   19.2870 O   0  0  0  0  0  0  0  0  0  0  0  0
   10.7580   15.5880   19.5040 C   0  0  0  0  0  0  0  0  0  0  0  0
   10.9690   14.7110   18.5370 N   0  0  0  0  0  0  0  0  0  0  0  0
   10.7920   15.0400   20.9190 C   0  0  1  0  0  0  0  0  0  0  0  0
   11.8460   15.7550   21.7720 C   0  0  0  0  0  0  0  0  0  0  0  0
   11.8730   15.2160   23.2050 C   0  0  0  0  0  0  0  0  0  0  0  0
   10.4840   15.2680   23.8380 C   0  0  0  0  0  0  0  0  0  0  0  0
    9.4460   15.2540   21.6150 C   0  0  0  0  0  0  0  0  0  0  0  0
    9.4800   14.6550   22.9540 N   0  0  0  0  0  0  0  0  0  0  0  0
    8.6060   13.6560   23.2690 C   0  0  0  0  0  0  0  0  0  0  0  0
    7.7610   13.2690   22.4710 O   0  0  0  0  0  0  0  0  0  0  0  0
    8.7320   13.1180   24.5140 N   0  0  0  0  0  0  0  0  0  0  0  0
    7.9270   12.0670   25.0340 C   0  0  0  0  0  0  0  0  0  0  0  0
    8.1380   10.7450   24.5920 C   0  0  0  0  0  0  0  0  0  0  0  0
    9.3060   10.3730   23.7150 C   0  0  0  0  0  0  0  0  0  0  0  0
    6.9240   12.3560   25.9610 C   0  0  0  0  0  0  0  0  0  0  0  0
    6.1130   11.3430   26.4390 C   0  0  0  0  0  0  0  0  0  0  0  0
    6.2850   10.0520   25.9940 C   0  0  0  0  0  0  0  0  0  0  0  0
    7.2810    9.7570   25.0760 C   0  0  0  0  0  0  0  0  0  0  0  0
 15 14  1  0
 14 19  2  0
 19 18  1  0
 18 17  2  0
 17 16  1  0
 16 13  2  0
 14 13  1  0
 13 12  1  0
 12 10  1  0
 11 10  2  0
 10  9  1  0
  9  7  1  0
  7  6  1  0
  6  5  1  0
  5  4  1  0
  4  2  1  6
  3  2  1  0
  2  1  2  0
  8  4  1  0
  9  8  1  0
M  END
$$$$
