A71EV2A-x4374_A_201_1_A71EV2A-x0911+A+147+1__LIG
     RDKit          3D

 20 21  0  0  0  0  0  0  0  0999 V2000
    7.7260   13.3050   22.5680 O   0  0  0  0  0  0  0  0  0  0  0  0
    8.6040   13.7330   23.3030 C   0  0  0  0  0  0  0  0  0  0  0  0
    9.4650   14.6970   22.9110 N   0  0  0  0  0  0  0  0  0  0  0  0
   10.5240   15.2660   23.7610 C   0  0  0  0  0  0  0  0  0  0  0  0
   11.8920   15.1380   23.0980 C   0  0  0  0  0  0  0  0  0  0  0  0
   11.8580   15.6670   21.6600 C   0  0  0  0  0  0  0  0  0  0  0  0
    9.4050   15.2360   21.5490 C   0  0  0  0  0  0  0  0  0  0  0  0
   10.7430   14.9880   20.8450 C   0  0  1  0  0  0  0  0  0  0  0  0
   10.6730   15.5280   19.4280 C   0  0  0  0  0  0  0  0  0  0  0  0
   10.3330   16.6960   19.2050 O   0  0  0  0  0  0  0  0  0  0  0  0
   10.9540   14.6590   18.4670 N   0  0  0  0  0  0  0  0  0  0  0  0
    8.7960   13.1980   24.7100 C   0  0  0  0  0  0  0  0  0  0  0  0
    7.7800   12.1420   25.0790 C   0  0  0  0  0  0  0  0  0  0  0  0
    7.9350   10.7990   24.6990 C   0  0  0  0  0  0  0  0  0  0  0  0
    9.0570   10.3680   23.7840 C   0  0  0  0  0  0  0  0  0  0  0  0
   10.0900    9.7310   24.4910 O   0  0  0  0  0  0  0  0  0  0  0  0
    7.0420    9.8520   25.1880 C   0  0  0  0  0  0  0  0  0  0  0  0
    6.0100   10.2190   26.0370 C   0  0  0  0  0  0  0  0  0  0  0  0
    5.8490   11.5330   26.3960 C   0  0  0  0  0  0  0  0  0  0  0  0
    6.7230   12.4910   25.9170 C   0  0  0  0  0  0  0  0  0  0  0  0
 11  9  1  0
 10  9  2  0
  8  9  1  6
  8  6  1  0
  6  5  1  0
  5  4  1  0
  4  3  1  0
  3  2  1  0
  2  1  2  0
 12  2  1  0
 13 12  1  0
 13 20  2  0
 20 19  1  0
 19 18  2  0
 18 17  1  0
 17 14  2  0
 14 13  1  0
 15 14  1  0
 16 15  1  0
  7  3  1  0
  8  7  1  0
M  END
$$$$
