XX01ZVNS2B-x0422_B_301_1_XX01ZVNS2B-x4590+B+203+1__LIG
     RDKit          3D

 11 12  0  0  0  0  0  0  0  0999 V2000
   -2.3740    5.1750  -17.7900 N   0  0  0  0  0  0  0  0  0  0  0  0
   -3.5900    5.0270  -18.3220 C   0  0  0  0  0  0  0  0  0  0  0  0
   -4.7330    5.0370  -17.5670 N   0  0  0  0  0  0  0  0  0  0  0  0
   -5.7460    4.8110  -18.4650 C   0  0  0  0  0  0  0  0  0  0  0  0
   -5.2590    4.6900  -19.6920 N   0  0  0  0  0  0  0  0  0  0  0  0
   -3.8740    4.8240  -19.6080 N   0  0  0  0  0  0  0  0  0  0  0  0
   -7.1500    4.6840  -18.1130 C   0  0  0  0  0  0  0  0  0  0  0  0
   -7.6660    4.8080  -16.4840 S   0  0  0  0  0  0  0  0  0  0  0  0
   -9.2800    4.5010  -16.9140 C   0  0  0  0  0  0  0  0  0  0  0  0
   -9.4330    4.3190  -18.2380 C   0  0  0  0  0  0  0  0  0  0  0  0
   -8.2110    4.4280  -18.9320 C   0  0  0  0  0  0  0  0  0  0  0  0
  2  1  1  0
  2  6  2  0
  6  5  1  0
  5  4  2  0
  4  3  1  0
  3  2  1  0
  7  4  1  0
  7 11  2  0
 11 10  1  0
 10  9  2  0
  9  8  1  0
  8  7  1  0
M  END
$$$$
