XX01ZVNS2B-x3021_B_301_5_XX01ZVNS2B-x4590+B+203+1__LIG
     RDKit          3D

 30 32  0  0  0  0  0  0  0  0999 V2000
   -5.7940    4.8500  -20.8760 O   0  0  0  0  0  0  0  0  0  0  0  0
   -5.3290    5.2840  -19.8390 C   0  0  0  0  0  0  0  0  0  0  0  0
   -4.4920    6.3440  -19.7560 O   0  0  0  0  0  0  0  0  0  0  0  0
   -4.1090    6.9850  -21.0110 C   0  0  0  0  0  0  0  0  0  0  0  0
   -3.0670    8.0310  -20.7240 C   0  0  0  0  0  0  0  0  0  0  0  0
   -2.7730    9.0200  -21.6530 C   0  0  0  0  0  0  0  0  0  0  0  0
   -1.8190    9.9890  -21.3780 C   0  0  0  0  0  0  0  0  0  0  0  0
   -1.1470    9.9780  -20.1740 C   0  0  0  0  0  0  0  0  0  0  0  0
   -1.4250    8.9980  -19.2460 C   0  0  0  0  0  0  0  0  0  0  0  0
   -2.3790    8.0300  -19.5170 C   0  0  0  0  0  0  0  0  0  0  0  0
   -5.4930    4.7560  -18.6000 N   0  0  0  0  0  0  0  0  0  0  0  0
   -6.6720    4.7610  -17.8180 C   0  0  0  0  0  0  0  0  0  0  0  0
   -7.9040    4.5100  -18.4090 C   0  0  0  0  0  0  0  0  0  0  0  0
   -9.0120    4.3600  -17.6010 C   0  0  0  0  0  0  0  0  0  0  0  0
  -10.5640    4.1050  -18.3440 Cl  0  0  0  0  0  0  0  0  0  0  0  0
   -8.9330    4.4540  -16.2240 C   0  0  0  0  0  0  0  0  0  0  0  0
   -6.5810    4.8990  -16.4370 C   0  0  0  0  0  0  0  0  0  0  0  0
   -7.7100    4.7520  -15.6360 C   0  0  0  0  0  0  0  0  0  0  0  0
   -7.5400    5.0560  -14.1820 C   0  0  0  0  0  0  0  0  0  0  0  0
   -6.6160    5.7640  -13.7980 O   0  0  0  0  0  0  0  0  0  0  0  0
   -8.4480    4.5040  -13.3360 N   0  0  0  0  0  0  0  0  0  0  0  0
   -8.4810    4.6380  -11.9180 C   0  0  0  0  0  0  0  0  0  0  0  0
   -8.2460    5.8820  -11.3470 C   0  0  0  0  0  0  0  0  0  0  0  0
   -8.2760    6.0230   -9.9680 C   0  0  0  0  0  0  0  0  0  0  0  0
   -8.5710    4.9350   -9.1610 C   0  0  0  0  0  0  0  0  0  0  0  0
   -8.7620    3.5480  -11.0980 C   0  0  0  0  0  0  0  0  0  0  0  0
   -8.8490    3.6940   -9.7150 C   0  0  0  0  0  0  0  0  0  0  0  0
   -9.4130    2.5800   -8.8630 C   0  0  0  0  0  0  0  0  0  0  0  0
   -8.4910    2.1660   -7.7420 C   0  0  0  0  0  0  0  0  0  0  0  0
   -7.2270    1.7480   -8.3520 N   0  0  0  0  0  0  0  0  0  0  0  0
 30 29  1  0
 29 28  1  0
 28 27  1  0
 27 25  2  0
 25 24  1  0
 24 23  2  0
 23 22  1  0
 22 21  1  0
 21 19  1  0
 20 19  2  0
 19 18  1  0
 18 16  2  0
 16 14  1  0
 15 14  1  0
 14 13  2  0
 13 12  1  0
 12 11  1  0
 11  2  1  0
  2  1  2  0
  3  2  1  0
  4  3  1  0
  5  4  1  0
  5 10  2  0
 10  9  1  0
  9  8  2  0
  8  7  1  0
  7  6  2  0
  6  5  1  0
 17 12  2  0
 18 17  1  0
 26 22  2  0
 27 26  1  0
M  END
$$$$
