XX01ZVNS2B-x4089_B_203_1_XX01ZVNS2B-x4590+B+203+1__LIG
     RDKit          3D

 26 30  0  0  0  0  0  0  0  0999 V2000
  -10.1890    3.7320  -17.7280 F   0  0  0  0  0  0  0  0  0  0  0  0
   -8.9890    4.0690  -17.1760 C   0  0  0  0  0  0  0  0  0  0  0  0
   -8.8840    4.1310  -15.8000 C   0  0  0  0  0  0  0  0  0  0  0  0
   -7.9550    4.3500  -18.0330 C   0  0  0  0  0  0  0  0  0  0  0  0
   -6.7270    4.7270  -17.4780 C   0  0  0  0  0  0  0  0  0  0  0  0
   -6.5660    4.8140  -16.0800 C   0  0  0  0  0  0  0  0  0  0  0  0
   -5.1870    5.1690  -15.8990 C   0  0  0  0  0  0  0  0  0  0  0  0
   -4.6660    5.2520  -17.1310 N   0  0  0  0  0  0  0  0  0  0  0  0
   -3.2490    5.5430  -17.4550 C   0  0  0  0  0  0  0  0  0  0  0  0
   -3.0480    6.7560  -18.3860 C   0  0  0  0  0  0  0  0  0  0  0  0
   -2.8880    5.8270  -19.5280 N   0  0  0  0  0  0  0  0  0  0  0  0
   -2.7020    4.6790  -18.6100 C   0  0  0  0  0  0  0  0  0  0  0  0
   -5.5570    5.0030  -18.1410 N   0  0  0  0  0  0  0  0  0  0  0  0
   -7.6590    4.5160  -15.2390 C   0  0  0  0  0  0  0  0  0  0  0  0
   -7.5110    4.6800  -13.7450 C   0  0  0  0  0  0  0  0  0  0  0  0
   -6.6270    5.4010  -13.2940 O   0  0  0  0  0  0  0  0  0  0  0  0
   -8.3690    3.9880  -12.9400 N   0  0  0  0  0  0  0  0  0  0  0  0
   -8.4060    3.9910  -11.5080 C   0  0  0  0  0  0  0  0  0  0  0  0
   -8.6500    2.8050  -10.8180 C   0  0  0  0  0  0  0  0  0  0  0  0
   -8.7320    2.8020   -9.4260 C   0  0  0  0  0  0  0  0  0  0  0  0
   -9.0570    1.6720   -8.4940 C   0  0  0  0  0  0  0  0  0  0  0  0
   -8.7080    2.2470   -7.1860 N   0  0  0  0  0  0  0  0  0  0  0  0
   -8.6600    3.7200   -7.2390 C   0  0  0  0  0  0  0  0  0  0  0  0
   -8.5500    3.9770   -8.7140 C   0  0  0  0  0  0  0  0  0  0  0  0
   -8.2920    5.1610   -9.3990 C   0  0  0  0  0  0  0  0  0  0  0  0
   -8.2260    5.1720  -10.7860 C   0  0  0  0  0  0  0  0  0  0  0  0
 16 15  2  0
 17 15  1  0
 18 17  1  0
 18 26  2  0
 26 25  1  0
 25 24  2  0
 24 20  1  0
 20 19  2  0
 19 18  1  0
 21 20  1  0
 22 21  1  0
 23 22  1  0
 24 23  1  0
 15 14  1  0
 14  3  2  0
  3  2  1  0
  2  1  1  0
  4  2  2  0
  5  4  1  0
  5 13  2  0
 13  8  1  0
  9  8  1  0
  9 12  1  0
 12 11  1  0
 11 10  1  0
 10  9  1  0
  8  7  1  0
  7  6  2  0
 14  6  1  0
  6  5  1  0
M  END
$$$$
