XX01ZVNS2B-x5348_B_203_6_XX01ZVNS2B-x4590+B+203+1__LIG
     RDKit          3D

 26 29  0  0  0  0  0  0  0  0999 V2000
  -10.7470    4.1450  -18.1960 Cl  0  0  0  0  0  0  0  0  0  0  0  0
   -9.2020    4.4660  -17.4480 C   0  0  0  0  0  0  0  0  0  0  0  0
   -9.1230    4.5790  -16.0620 C   0  0  0  0  0  0  0  0  0  0  0  0
   -8.1060    4.6660  -18.2660 C   0  0  0  0  0  0  0  0  0  0  0  0
   -6.9170    5.0390  -17.6620 C   0  0  0  0  0  0  0  0  0  0  0  0
   -5.7050    5.3560  -18.2070 N   0  0  0  0  0  0  0  0  0  0  0  0
   -5.3220    5.3880  -19.6210 C   0  0  0  0  0  0  0  0  0  0  0  0
   -5.1330    6.8000  -20.2130 C   0  0  0  0  0  0  0  0  0  0  0  0
   -3.9270    6.2900  -20.9090 N   0  0  0  0  0  0  0  0  0  0  0  0
   -3.8340    5.1480  -19.9680 C   0  0  0  0  0  0  0  0  0  0  0  0
   -4.7990    5.7000  -17.2400 N   0  0  0  0  0  0  0  0  0  0  0  0
   -5.4360    5.6080  -16.0900 C   0  0  0  0  0  0  0  0  0  0  0  0
   -6.7810    5.1940  -16.2740 C   0  0  0  0  0  0  0  0  0  0  0  0
   -7.9070    4.9570  -15.4610 C   0  0  0  0  0  0  0  0  0  0  0  0
   -7.7830    5.2500  -13.9890 C   0  0  0  0  0  0  0  0  0  0  0  0
   -6.9540    6.0650  -13.5860 O   0  0  0  0  0  0  0  0  0  0  0  0
   -8.6060    4.5760  -13.1500 N   0  0  0  0  0  0  0  0  0  0  0  0
   -8.6620    4.7350  -11.7330 C   0  0  0  0  0  0  0  0  0  0  0  0
   -8.4260    5.9650  -11.1220 C   0  0  0  0  0  0  0  0  0  0  0  0
   -8.4980    6.0750   -9.7400 C   0  0  0  0  0  0  0  0  0  0  0  0
   -8.8220    4.9680   -8.9700 C   0  0  0  0  0  0  0  0  0  0  0  0
   -8.9800    3.6290  -10.9520 C   0  0  0  0  0  0  0  0  0  0  0  0
   -9.0790    3.7370   -9.5680 C   0  0  0  0  0  0  0  0  0  0  0  0
   -9.4940    2.5440   -8.7440 C   0  0  0  0  0  0  0  0  0  0  0  0
   -8.3460    1.9260   -8.0820 N   0  0  0  0  0  0  0  0  0  0  0  0
   -8.4510    2.0130   -6.6250 C   0  0  0  0  0  0  0  0  0  0  0  0
 26 25  1  0
 25 24  1  0
 24 23  1  0
 23 21  2  0
 21 20  1  0
 20 19  2  0
 19 18  1  0
 18 17  1  0
 17 15  1  0
 16 15  2  0
 15 14  1  0
 14  3  1  0
  3  2  2  0
  2  1  1  0
  4  2  1  0
  5  4  2  0
  5 13  1  0
 14 13  2  0
 13 12  1  0
 12 11  2  0
 11  6  1  0
  6  5  1  0
  7  6  1  0
  7 10  1  0
 10  9  1  0
  9  8  1  0
  8  7  1  0
 22 18  2  0
 23 22  1  0
M  END
$$$$
