A71EV2A-x4974_A_201_1_A71EV2A-x0911+A+147+1__LIG
     RDKit          3D

 21 23  0  0  0  0  0  0  0  0999 V2000
   11.7410   14.5740   24.9050 O   0  0  0  0  0  0  0  0  0  0  0  0
   11.5380   14.6540   23.6990 C   0  0  0  0  0  0  0  0  0  0  0  0
   12.7010   14.6620   22.7360 C   0  0  0  0  0  0  0  0  0  0  0  0
   12.3600   14.5770   21.2440 C   0  0  0  0  0  0  0  0  0  0  0  0
   11.1160   15.4280   20.9540 C   0  0  1  0  0  0  0  0  0  0  0  0
   10.8270   15.5990   19.4700 C   0  0  0  0  0  0  0  0  0  0  0  0
   10.1790   16.5640   19.0640 O   0  0  0  0  0  0  0  0  0  0  0  0
   11.2770   14.6560   18.6510 N   0  0  0  0  0  0  0  0  0  0  0  0
    9.9500   14.8430   21.7590 C   0  0  0  0  0  0  0  0  0  0  0  0
   10.2890   14.7690   23.1860 N   0  0  0  0  0  0  0  0  0  0  0  0
    9.1350   14.8610   24.0810 C   0  0  0  0  0  0  0  0  0  0  0  0
    8.4810   13.5400   24.4120 C   0  0  0  0  0  0  0  0  0  0  0  0
    7.4300   13.5040   25.3300 C   0  0  0  0  0  0  0  0  0  0  0  0
    6.8430   12.3090   25.7070 C   0  0  0  0  0  0  0  0  0  0  0  0
    8.9420   12.3400   23.8660 C   0  0  0  0  0  0  0  0  0  0  0  0
    8.3600   11.1360   24.2510 C   0  0  0  0  0  0  0  0  0  0  0  0
    8.6240    9.8390   23.9190 N   0  0  0  0  0  0  0  0  0  0  0  0
    9.6850    9.3150   23.0660 C   0  0  0  0  0  0  0  0  0  0  0  0
    7.3030   11.1040   25.1700 C   0  0  0  0  0  0  0  0  0  0  0  0
    6.9970    9.7240   25.3120 C   0  0  0  0  0  0  0  0  0  0  0  0
    7.7860    8.9780   24.5670 N   0  0  0  0  0  0  0  0  0  0  0  0
 18 17  1  0
 17 21  1  0
 21 20  2  0
 20 19  1  0
 19 14  1  0
 14 13  2  0
 13 12  1  0
 12 11  1  0
 11 10  1  0
 10  9  1  0
  9  5  1  0
  5  6  1  6
  8  6  1  0
  7  6  2  0
  5  4  1  0
  4  3  1  0
  3  2  1  0
 10  2  1  0
  2  1  2  0
 15 12  2  0
 16 15  1  0
 19 16  2  0
 17 16  1  0
M  END
$$$$
