A71EV2A-x5359_A_201_3_A71EV2A-x0911+A+147+1__LIG
     RDKit          3D

 21 22  0  0  0  0  0  0  0  0999 V2000
   10.3990   16.8130   19.1820 O   0  0  0  0  0  0  0  0  0  0  0  0
   10.7350   15.6450   19.4310 C   0  0  0  0  0  0  0  0  0  0  0  0
   10.9470   14.7350   18.4920 N   0  0  0  0  0  0  0  0  0  0  0  0
   10.8390   15.1500   20.8630 C   0  0  1  0  0  0  0  0  0  0  0  0
   11.8000   16.0240   21.6870 C   0  0  0  0  0  0  0  0  0  0  0  0
   11.8000   15.6100   23.1670 C   0  0  0  0  0  0  0  0  0  0  0  0
   10.3850   15.5990   23.7260 C   0  0  0  0  0  0  0  0  0  0  0  0
    9.4370   15.2780   21.4710 C   0  0  0  0  0  0  0  0  0  0  0  0
    9.5010   14.7930   22.8610 N   0  0  0  0  0  0  0  0  0  0  0  0
    8.2670   13.9920   23.5460 S   0  0  0  0  0  0  0  0  0  0  0  0
    7.4870   14.9550   24.2560 O   0  0  0  0  0  0  0  0  0  0  0  0
    7.6420   13.2040   22.5260 O   0  0  0  0  0  0  0  0  0  0  0  0
    9.0010   12.8850   24.7430 C   0  0  0  0  0  0  0  0  0  0  0  0
    8.0390   11.8510   25.2650 C   0  0  0  0  0  0  0  0  0  0  0  0
    8.0370   10.5220   24.8000 C   0  0  0  0  0  0  0  0  0  0  0  0
    9.0540   10.0670   23.8340 C   0  0  0  0  0  0  0  0  0  0  0  0
    9.2580    8.8610   23.4560 C   0  0  0  0  0  0  0  0  0  0  0  0
    7.1120   12.2320   26.2280 C   0  0  0  0  0  0  0  0  0  0  0  0
    6.1770   11.3320   26.7100 C   0  0  0  0  0  0  0  0  0  0  0  0
    6.1570   10.0380   26.2410 C   0  0  0  0  0  0  0  0  0  0  0  0
    7.0800    9.6270   25.2910 C   0  0  0  0  0  0  0  0  0  0  0  0
 17 16  2  0
 16 15  1  0
 15 21  2  0
 21 20  1  0
 20 19  2  0
 19 18  1  0
 18 14  2  0
 15 14  1  0
 14 13  1  0
 13 10  1  0
 11 10  2  0
 12 10  2  0
 10  9  1  0
  9  7  1  0
  7  6  1  0
  6  5  1  0
  5  4  1  0
  4  2  1  6
  3  2  1  0
  2  1  2  0
  8  4  1  0
  9  8  1  0
M  END
$$$$
