XX01ZVNS2B-x0472_B_301_1_XX01ZVNS2B-x4590+B+203+1__LIG
     RDKit          3D

 13 14  0  0  0  0  0  0  0  0999 V2000
   -2.8150    4.1160  -15.4000 N   0  0  0  0  0  0  0  0  0  0  0  0
   -2.5290    5.1790  -16.3620 C   0  0  0  0  0  0  0  0  0  0  0  0
   -3.4960    5.1420  -17.5570 C   0  0  2  0  0  0  0  0  0  0  0  0
   -3.0050    6.0920  -18.6360 C   0  0  0  0  0  0  0  0  0  0  0  0
   -4.9130    5.3210  -17.1590 N   0  0  0  0  0  0  0  0  0  0  0  0
   -5.9190    5.3630  -18.2420 C   0  0  0  0  0  0  0  0  0  0  0  0
   -7.2760    5.0220  -17.6790 C   0  0  0  0  0  0  0  0  0  0  0  0
   -8.4010    4.5830  -18.4330 C   0  0  0  0  0  0  0  0  0  0  0  0
   -9.4560    4.2690  -17.6510 C   0  0  0  0  0  0  0  0  0  0  0  0
   -9.1120    4.5000  -15.9910 S   0  0  0  0  0  0  0  0  0  0  0  0
   -7.5180    5.0470  -16.3420 C   0  0  0  0  0  0  0  0  0  0  0  0
   -6.5370    5.5120  -15.3070 C   0  0  0  0  0  0  0  0  0  0  0  0
   -5.3480    6.1450  -16.0200 C   0  0  0  0  0  0  0  0  0  0  0  0
  3  4  1  6
  3  2  1  0
  2  1  1  0
  5  3  1  0
  5 13  1  0
 13 12  1  0
 12 11  1  0
 11 10  1  0
 10  9  1  0
  9  8  2  0
  8  7  1  0
 11  7  2  0
  7  6  1  0
  6  5  1  0
M  END
$$$$
