XX01ZVNS2B-x1317_B_301_1_XX01ZVNS2B-x4590+B+203+1__LIG
     RDKit          3D

 29 32  0  0  0  0  0  0  0  0999 V2000
   -7.3480    8.6630  -13.1820 C   0  0  0  0  0  0  0  0  0  0  0  0
   -8.9710    8.1310  -12.7900 S   0  0  0  0  0  0  0  0  0  0  0  0
   -9.5640    7.5290  -13.9520 O   0  0  0  0  0  0  0  0  0  0  0  0
   -9.6690    9.2260  -12.1810 O   0  0  0  0  0  0  0  0  0  0  0  0
   -8.7700    6.8700  -11.5700 C   0  0  0  0  0  0  0  0  0  0  0  0
   -8.8580    7.2540  -10.2390 C   0  0  0  0  0  0  0  0  0  0  0  0
   -8.7340    6.3190   -9.2340 C   0  0  0  0  0  0  0  0  0  0  0  0
   -8.5320    4.9660   -9.5320 C   0  0  0  0  0  0  0  0  0  0  0  0
   -8.4480    4.0300   -8.5100 N   0  0  0  0  0  0  0  0  0  0  0  0
   -7.5050    4.2560   -7.4110 C   0  0  0  0  0  0  0  0  0  0  0  0
   -7.9790    3.5400   -6.1620 C   0  0  0  0  0  0  0  0  0  0  0  0
   -9.1270    2.6810   -6.4370 N   0  0  0  0  0  0  0  0  0  0  0  0
   -8.8860    1.8040   -7.5750 C   0  0  0  0  0  0  0  0  0  0  0  0
   -8.5970    2.6080   -8.8310 C   0  0  0  0  0  0  0  0  0  0  0  0
   -8.4460    4.5730  -10.8670 C   0  0  0  0  0  0  0  0  0  0  0  0
   -8.5840    5.5150  -11.8780 C   0  0  0  0  0  0  0  0  0  0  0  0
   -8.4710    5.0540  -13.2040 N   0  0  0  0  0  0  0  0  0  0  0  0
   -7.4350    5.3440  -14.0260 C   0  0  0  0  0  0  0  0  0  0  0  0
   -6.4570    5.9800  -13.6600 O   0  0  0  0  0  0  0  0  0  0  0  0
   -7.5840    4.9090  -15.4560 C   0  0  0  0  0  0  0  0  0  0  0  0
   -8.8350    4.6380  -15.9500 C   0  0  0  0  0  0  0  0  0  0  0  0
   -9.0200    4.2640  -17.2950 C   0  0  0  0  0  0  0  0  0  0  0  0
   -7.9520    4.1760  -18.1400 C   0  0  0  0  0  0  0  0  0  0  0  0
   -6.6440    4.4550  -17.6790 C   0  0  0  0  0  0  0  0  0  0  0  0
   -5.6080    4.3380  -18.5710 N   0  0  0  0  0  0  0  0  0  0  0  0
   -4.3930    4.5990  -18.1260 C   0  0  0  0  0  0  0  0  0  0  0  0
   -4.0910    4.9800  -16.8050 C   0  0  0  0  0  0  0  0  0  0  0  0
   -5.1100    5.0940  -15.9060 C   0  0  0  0  0  0  0  0  0  0  0  0
   -6.4440    4.8260  -16.3180 C   0  0  0  0  0  0  0  0  0  0  0  0
  1  2  1  0
  2  3  2  0
  2  4  2  0
  2  5  1  0
  5  6  2  0
  6  7  1  0
  7  8  2  0
  8  9  1  0
  9 10  1  0
 10 11  1  0
 11 12  1  0
 12 13  1  0
 13 14  1  0
  8 15  1  0
 15 16  2  0
 16 17  1  0
 17 18  1  0
 18 19  2  0
 18 20  1  0
 20 21  2  0
 21 22  1  0
 22 23  2  0
 23 24  1  0
 24 25  2  0
 25 26  1  0
 26 27  2  0
 27 28  1  0
 28 29  2  0
  5 16  1  0
 20 29  1  0
  9 14  1  0
 24 29  1  0
M  END
$$$$
