XX01ZVNS2B-x3733_B_203_1_XX01ZVNS2B-x4590+B+203+1__LIG
     RDKit          3D

 21 24  0  0  0  0  0  0  0  0999 V2000
   -6.5920    5.3560  -13.2270 O   0  0  0  0  0  0  0  0  0  0  0  0
   -7.5580    4.7500  -13.6800 C   0  0  0  0  0  0  0  0  0  0  0  0
   -7.7280    4.5970  -15.1590 C   0  0  0  0  0  0  0  0  0  0  0  0
   -6.7170    4.9990  -16.0530 C   0  0  0  0  0  0  0  0  0  0  0  0
   -5.4500    5.4310  -15.8510 N   0  0  0  0  0  0  0  0  0  0  0  0
   -4.7910    5.6210  -17.0320 N   0  0  0  0  0  0  0  0  0  0  0  0
   -5.6510    5.3220  -17.9860 C   0  0  0  0  0  0  0  0  0  0  0  0
   -6.8970    4.9100  -17.4470 C   0  0  0  0  0  0  0  0  0  0  0  0
   -8.1050    4.4130  -17.9420 C   0  0  0  0  0  0  0  0  0  0  0  0
   -9.0950    3.9960  -17.0670 C   0  0  0  0  0  0  0  0  0  0  0  0
   -8.9120    4.0810  -15.6910 C   0  0  0  0  0  0  0  0  0  0  0  0
   -8.5030    4.1610  -12.9060 N   0  0  0  0  0  0  0  0  0  0  0  0
   -8.5400    4.1100  -11.4900 C   0  0  0  0  0  0  0  0  0  0  0  0
   -8.8570    2.9240  -10.8290 C   0  0  0  0  0  0  0  0  0  0  0  0
   -8.8900    2.8880   -9.4380 C   0  0  0  0  0  0  0  0  0  0  0  0
   -9.2760    1.7640   -8.5220 C   0  0  0  0  0  0  0  0  0  0  0  0
   -8.9510    2.3120   -7.2050 N   0  0  0  0  0  0  0  0  0  0  0  0
   -8.6310    3.7330   -7.2330 C   0  0  0  0  0  0  0  0  0  0  0  0
   -8.5780    4.0230   -8.7050 C   0  0  0  0  0  0  0  0  0  0  0  0
   -8.2660    5.2060   -9.3670 C   0  0  0  0  0  0  0  0  0  0  0  0
   -8.2530    5.2530  -10.7490 C   0  0  0  0  0  0  0  0  0  0  0  0
  2  1  2  0
 12  2  1  0
 13 12  1  0
 13 21  2  0
 21 20  1  0
 20 19  2  0
 19 15  1  0
 15 14  2  0
 14 13  1  0
 16 15  1  0
 17 16  1  0
 18 17  1  0
 19 18  1  0
  3  2  1  0
  3 11  1  0
 11 10  2  0
 10  9  1  0
  9  8  2  0
  8  7  1  0
  7  6  2  0
  6  5  1  0
  5  4  1  0
  4  3  2  0
  8  4  1  0
M  END
$$$$
