XX01ZVNS2B-x4986_B_203_5_XX01ZVNS2B-x4590+B+203+1__LIG
     RDKit          3D

 24 27  0  0  0  0  0  0  0  0999 V2000
   -6.4360    5.4460  -12.9360 O   0  0  0  0  0  0  0  0  0  0  0  0
   -7.2620    4.7410  -13.5120 C   0  0  0  0  0  0  0  0  0  0  0  0
   -7.2890    4.6800  -15.0080 C   0  0  0  0  0  0  0  0  0  0  0  0
   -8.3910    4.2620  -15.7550 C   0  0  0  0  0  0  0  0  0  0  0  0
   -8.3310    4.2770  -17.1380 C   0  0  0  0  0  0  0  0  0  0  0  0
   -9.7230    3.8130  -18.0600 Cl  0  0  0  0  0  0  0  0  0  0  0  0
   -6.1320    5.1100  -15.6620 C   0  0  0  0  0  0  0  0  0  0  0  0
   -6.0650    5.1290  -17.0580 C   0  0  0  0  0  0  0  0  0  0  0  0
   -7.1800    4.6990  -17.8010 C   0  0  0  0  0  0  0  0  0  0  0  0
   -6.8810    4.8460  -19.1340 N   0  0  0  0  0  0  0  0  0  0  0  0
   -5.6190    5.3640  -19.2460 C   0  0  0  0  0  0  0  0  0  0  0  0
   -5.0730    5.5570  -18.0080 C   0  0  0  0  0  0  0  0  0  0  0  0
   -3.7290    6.1680  -17.6900 C   0  0  0  0  0  0  0  0  0  0  0  0
   -2.7980    5.1420  -17.1860 N   0  0  0  0  0  0  0  0  0  0  0  0
   -8.1930    4.0000  -12.8510 N   0  0  0  0  0  0  0  0  0  0  0  0
   -8.3830    3.9530  -11.4400 C   0  0  0  0  0  0  0  0  0  0  0  0
   -8.6620    2.7660  -10.7630 C   0  0  0  0  0  0  0  0  0  0  0  0
   -8.8110    2.7640   -9.3760 C   0  0  0  0  0  0  0  0  0  0  0  0
   -9.1680    1.6470   -8.4380 C   0  0  0  0  0  0  0  0  0  0  0  0
   -8.8810    2.2370   -7.1230 N   0  0  0  0  0  0  0  0  0  0  0  0
   -8.8410    3.6900   -7.1950 C   0  0  0  0  0  0  0  0  0  0  0  0
   -8.6680    3.9460   -8.6640 C   0  0  0  0  0  0  0  0  0  0  0  0
   -8.3950    5.1300   -9.3380 C   0  0  0  0  0  0  0  0  0  0  0  0
   -8.2540    5.1360  -10.7160 C   0  0  0  0  0  0  0  0  0  0  0  0
 14 13  1  0
 13 12  1  0
 12 11  2  0
 11 10  1  0
 10  9  1  0
  9  5  1  0
  6  5  1  0
  5  4  2  0
  4  3  1  0
  3  2  1  0
  2  1  2  0
 15  2  1  0
 16 15  1  0
 16 24  2  0
 24 23  1  0
 23 22  2  0
 22 18  1  0
 18 17  2  0
 17 16  1  0
 19 18  1  0
 20 19  1  0
 21 20  1  0
 22 21  1  0
  7  3  2  0
  8  7  1  0
 12  8  1  0
  9  8  2  0
M  END
$$$$
