XX01ZVNS2B-x3028_B_301_1_XX01ZVNS2B-x4590+B+203+1__LIG
     RDKit          3D

 30 32  0  0  0  0  0  0  0  0999 V2000
   -3.5440    5.2080  -16.7820 O   0  0  0  0  0  0  0  0  0  0  0  0
   -4.0110    5.4670  -17.8720 C   0  0  0  0  0  0  0  0  0  0  0  0
   -3.2850    5.6840  -18.9850 O   0  0  0  0  0  0  0  0  0  0  0  0
   -1.8440    5.6240  -18.8600 C   0  0  0  0  0  0  0  0  0  0  0  0
   -1.3220    5.7140  -20.2620 C   0  0  0  0  0  0  0  0  0  0  0  0
   -0.0800    6.2690  -20.5370 C   0  0  0  0  0  0  0  0  0  0  0  0
    0.3980    6.3220  -21.8370 C   0  0  0  0  0  0  0  0  0  0  0  0
   -0.3590    5.8270  -22.8770 C   0  0  0  0  0  0  0  0  0  0  0  0
   -1.5990    5.2850  -22.6200 C   0  0  0  0  0  0  0  0  0  0  0  0
   -2.0780    5.2290  -21.3210 C   0  0  0  0  0  0  0  0  0  0  0  0
   -5.3220    5.6260  -18.1760 N   0  0  0  0  0  0  0  0  0  0  0  0
   -6.4300    5.1660  -17.4340 C   0  0  0  0  0  0  0  0  0  0  0  0
   -7.5360    4.7000  -18.1370 C   0  0  0  0  0  0  0  0  0  0  0  0
   -8.6810    4.3800  -17.4380 C   0  0  0  0  0  0  0  0  0  0  0  0
  -10.1090    3.9310  -18.3270 Cl  0  0  0  0  0  0  0  0  0  0  0  0
   -8.7470    4.4710  -16.0600 C   0  0  0  0  0  0  0  0  0  0  0  0
   -6.4780    5.2670  -16.0490 C   0  0  0  0  0  0  0  0  0  0  0  0
   -7.6340    4.9230  -15.3570 C   0  0  0  0  0  0  0  0  0  0  0  0
   -7.6140    5.0870  -13.8700 C   0  0  0  0  0  0  0  0  0  0  0  0
   -6.9380    5.9670  -13.3430 O   0  0  0  0  0  0  0  0  0  0  0  0
   -8.3200    4.1710  -13.1650 N   0  0  0  0  0  0  0  0  0  0  0  0
   -8.3570    4.0130  -11.7580 C   0  0  0  0  0  0  0  0  0  0  0  0
   -8.5080    5.0780  -10.8770 C   0  0  0  0  0  0  0  0  0  0  0  0
   -8.5570    4.8520   -9.5120 C   0  0  0  0  0  0  0  0  0  0  0  0
   -8.2530    2.7270  -11.2460 C   0  0  0  0  0  0  0  0  0  0  0  0
   -8.3090    2.5130   -9.8820 C   0  0  0  0  0  0  0  0  0  0  0  0
   -8.4650    3.5670   -8.9960 C   0  0  0  0  0  0  0  0  0  0  0  0
   -8.5160    3.3190   -7.4970 C   0  0  2  0  0  0  0  0  0  0  0  0
   -9.3400    2.1200   -7.2640 N   0  0  0  0  0  0  0  0  0  0  0  0
   -8.9960    4.5010   -6.6620 C   0  0  0  0  0  0  0  0  0  0  0  0
 28 30  1  1
 29 28  1  0
 28 27  1  0
 27 24  1  0
 24 23  2  0
 23 22  1  0
 22 21  1  0
 21 19  1  0
 20 19  2  0
 19 18  1  0
 18 16  2  0
 16 14  1  0
 15 14  1  0
 14 13  2  0
 13 12  1  0
 12 11  1  0
 11  2  1  0
  2  1  2  0
  3  2  1  0
  4  3  1  0
  5  4  1  0
  5 10  2  0
 10  9  1  0
  9  8  2  0
  8  7  1  0
  7  6  2  0
  6  5  1  0
 17 12  2  0
 18 17  1  0
 25 22  2  0
 26 25  1  0
 27 26  2  0
M  END
$$$$
