A71EV2A-x3593_A_201_1_A71EV2A-x0911+A+147+1__LIG
     RDKit          3D

 21 23  0  0  0  0  0  0  0  0999 V2000
    9.3390   14.4470   24.5210 O   0  0  0  0  0  0  0  0  0  0  0  0
    9.6190   13.5070   23.7530 C   0  0  0  0  0  0  0  0  0  0  0  0
    9.0110   12.1640   23.9500 C   0  0  0  0  0  0  0  0  0  0  0  0
    7.9500   11.7680   24.8410 C   0  0  0  0  0  0  0  0  0  0  0  0
    7.1430   12.3950   25.7900 C   0  0  0  0  0  0  0  0  0  0  0  0
    6.2320   11.6340   26.5130 C   0  0  0  0  0  0  0  0  0  0  0  0
    6.1240   10.2640   26.3100 C   0  0  0  0  0  0  0  0  0  0  0  0
    6.9080    9.6280   25.3550 C   0  0  0  0  0  0  0  0  0  0  0  0
    7.8080   10.3880   24.6280 C   0  0  0  0  0  0  0  0  0  0  0  0
    8.7290   10.0360   23.6870 N   0  0  0  0  0  0  0  0  0  0  0  0
    9.0830    8.6950   23.2370 C   0  0  0  0  0  0  0  0  0  0  0  0
    9.4540   11.1200   23.2470 N   0  0  0  0  0  0  0  0  0  0  0  0
   10.4840   13.6310   22.7380 N   0  0  0  0  0  0  0  0  0  0  0  0
   11.5760   14.5910   22.9180 C   0  0  1  0  0  0  0  0  0  0  0  0
   12.6210   14.0740   23.8910 C   0  0  0  0  0  0  0  0  0  0  0  0
   12.1530   14.8770   21.5400 C   0  0  0  0  0  0  0  0  0  0  0  0
   11.1720   15.5670   20.6650 C   0  0  0  0  0  0  0  0  0  0  0  0
   10.5370   16.7390   21.0850 N   0  0  0  0  0  0  0  0  0  0  0  0
    9.7600   17.0390   20.1080 C   0  0  0  0  0  0  0  0  0  0  0  0
    9.8280   16.2080   19.0440 O   0  0  0  0  0  0  0  0  0  0  0  0
   10.7320   15.2590   19.4380 C   0  0  0  0  0  0  0  0  0  0  0  0
 14 15  1  1
 16 14  1  0
 17 16  1  0
 17 21  2  0
 21 20  1  0
 20 19  1  0
 19 18  2  0
 18 17  1  0
 14 13  1  0
 13  2  1  0
  2  1  2  0
  3  2  1  0
  3 12  2  0
 12 10  1  0
 11 10  1  0
 10  9  1  0
  9  8  1  0
  8  7  2  0
  7  6  1  0
  6  5  2  0
  5  4  1  0
  4  3  1  0
  9  4  2  0
M  END
$$$$
