A71EV2A-x5081_C_201_2_A71EV2A-x0911+A+147+1__LIG
     RDKit          3D

 19 20  0  0  0  0  0  0  0  0999 V2000
    9.5830   10.1010   23.5570 Cl  0  0  0  0  0  0  0  0  0  0  0  0
    8.2960   10.5190   24.6440 C   0  0  0  0  0  0  0  0  0  0  0  0
    7.4750    9.5420   24.9880 N   0  0  0  0  0  0  0  0  0  0  0  0
    6.5380    9.8930   25.8720 C   0  0  0  0  0  0  0  0  0  0  0  0
    6.3450   11.0960   26.4030 N   0  0  0  0  0  0  0  0  0  0  0  0
    7.2020   12.0460   26.0090 C   0  0  0  0  0  0  0  0  0  0  0  0
    8.2460   11.8550   25.1160 C   0  0  0  0  0  0  0  0  0  0  0  0
    9.2090   12.9660   24.7550 C   0  0  0  0  0  0  0  0  0  0  0  0
    8.9230   13.5500   23.3830 C   0  0  0  0  0  0  0  0  0  0  0  0
    7.9920   13.1360   22.6950 O   0  0  0  0  0  0  0  0  0  0  0  0
    9.7080   14.5770   22.9820 N   0  0  0  0  0  0  0  0  0  0  0  0
   10.7410   15.2370   23.7980 C   0  0  0  0  0  0  0  0  0  0  0  0
   12.1050   15.1400   23.1120 C   0  0  0  0  0  0  0  0  0  0  0  0
   12.0260   15.6700   21.6680 C   0  0  0  0  0  0  0  0  0  0  0  0
    9.5810   15.1230   21.6290 C   0  0  0  0  0  0  0  0  0  0  0  0
   10.9070   14.9610   20.8780 C   0  0  1  0  0  0  0  0  0  0  0  0
   10.7990   15.5090   19.4650 C   0  0  0  0  0  0  0  0  0  0  0  0
   10.4220   16.6740   19.2590 O   0  0  0  0  0  0  0  0  0  0  0  0
   11.0930   14.6510   18.4950 N   0  0  0  0  0  0  0  0  0  0  0  0
 19 17  1  0
 18 17  2  0
 16 17  1  6
 16 14  1  0
 14 13  1  0
 13 12  1  0
 12 11  1  0
 11  9  1  0
 10  9  2  0
  9  8  1  0
  8  7  1  0
  7  6  2  0
  6  5  1  0
  5  4  2  0
  4  3  1  0
  3  2  2  0
  7  2  1  0
  2  1  1  0
 15 11  1  0
 16 15  1  0
M  END
$$$$
