XX01ZVNS2B-x3808_B_203_6_XX01ZVNS2B-x4590+B+203+1__LIG
     RDKit          3D

 22 25  0  0  0  0  0  0  0  0999 V2000
  -10.2000    3.7130  -17.5010 F   0  0  0  0  0  0  0  0  0  0  0  0
   -9.0150    4.2070  -17.0580 C   0  0  0  0  0  0  0  0  0  0  0  0
   -8.8340    4.3440  -15.7010 C   0  0  0  0  0  0  0  0  0  0  0  0
   -8.0540    4.5090  -17.9880 C   0  0  0  0  0  0  0  0  0  0  0  0
   -6.8300    4.9620  -17.5130 C   0  0  0  0  0  0  0  0  0  0  0  0
   -6.5660    5.1110  -16.1370 C   0  0  0  0  0  0  0  0  0  0  0  0
   -5.2260    5.5670  -16.0840 C   0  0  0  0  0  0  0  0  0  0  0  0
   -4.7110    5.6990  -17.2910 N   0  0  0  0  0  0  0  0  0  0  0  0
   -5.6940    5.3280  -18.1630 N   0  0  0  0  0  0  0  0  0  0  0  0
   -7.5970    4.7960  -15.2310 C   0  0  0  0  0  0  0  0  0  0  0  0
   -7.4040    4.9260  -13.7470 C   0  0  0  0  0  0  0  0  0  0  0  0
   -6.3560    5.3670  -13.2820 O   0  0  0  0  0  0  0  0  0  0  0  0
   -8.4170    4.4620  -12.9760 N   0  0  0  0  0  0  0  0  0  0  0  0
   -8.4250    4.3320  -11.5680 C   0  0  0  0  0  0  0  0  0  0  0  0
   -8.7470    3.1090  -10.9960 C   0  0  0  0  0  0  0  0  0  0  0  0
   -8.7990    2.9880   -9.6120 C   0  0  0  0  0  0  0  0  0  0  0  0
   -9.1630    1.7990   -8.7720 C   0  0  0  0  0  0  0  0  0  0  0  0
   -9.2930    2.3810   -7.4470 N   0  0  0  0  0  0  0  0  0  0  0  0
   -8.7090    3.7200   -7.4030 C   0  0  0  0  0  0  0  0  0  0  0  0
   -8.5040    4.1150   -8.8280 C   0  0  0  0  0  0  0  0  0  0  0  0
   -8.1580    5.2930   -9.3730 N   0  0  0  0  0  0  0  0  0  0  0  0
   -8.1340    5.3860  -10.7090 C   0  0  0  0  0  0  0  0  0  0  0  0
 12 11  2  0
 13 11  1  0
 14 13  1  0
 14 22  2  0
 22 21  1  0
 21 20  2  0
 20 16  1  0
 16 15  2  0
 15 14  1  0
 17 16  1  0
 18 17  1  0
 19 18  1  0
 20 19  1  0
 11 10  1  0
 10  3  1  0
  3  2  2  0
  2  1  1  0
  4  2  1  0
  5  4  2  0
  5  9  1  0
  9  8  1  0
  8  7  2  0
  7  6  1  0
 10  6  2  0
  6  5  1  0
M  END
$$$$
