A71EV2A-x3968_A_201_1_A71EV2A-x0911+A+147+1__LIG
     RDKit          3D

 25 27  0  0  0  0  0  0  0  0999 V2000
    6.9270   13.5590   22.1010 O   0  0  0  0  0  0  0  0  0  0  0  0
    7.6730   13.8920   22.9900 C   0  0  0  0  0  0  0  0  0  0  0  0
    8.6690   14.7790   22.7650 N   0  0  0  0  0  0  0  0  0  0  0  0
    9.6820   15.3170   23.6800 C   0  0  0  0  0  0  0  0  0  0  0  0
   11.0860   15.1480   23.1390 C   0  0  0  0  0  0  0  0  0  0  0  0
   11.1920   15.6830   21.7140 C   0  0  0  0  0  0  0  0  0  0  0  0
    8.7700   15.3670   21.4290 C   0  0  0  0  0  0  0  0  0  0  0  0
   10.1310   15.0510   20.8140 C   0  0  1  0  0  0  0  0  0  0  0  0
   10.2340   15.5720   19.3910 C   0  0  0  0  0  0  0  0  0  0  0  0
    9.8810   16.7200   19.1050 O   0  0  0  0  0  0  0  0  0  0  0  0
   10.7500   14.7380   18.5030 N   0  0  0  0  0  0  0  0  0  0  0  0
    7.4380   13.2830   24.3850 C   0  0  1  0  0  0  0  0  0  0  0  0
    8.1350   11.9450   24.4140 C   0  0  0  0  0  0  0  0  0  0  0  0
    7.4870   10.8220   24.8930 C   0  0  0  0  0  0  0  0  0  0  0  0
    8.0780    9.5750   24.7980 C   0  0  0  0  0  0  0  0  0  0  0  0
    9.3220    9.4400   24.2370 C   0  0  0  0  0  0  0  0  0  0  0  0
    9.9860   10.5470   23.7790 C   0  0  0  0  0  0  0  0  0  0  0  0
    9.3990   11.7960   23.8680 C   0  0  0  0  0  0  0  0  0  0  0  0
    8.0200   13.9880   25.4830 O   0  0  0  0  0  0  0  0  0  0  0  0
    7.1510   14.9670   26.0560 C   0  0  0  0  0  0  0  0  0  0  0  0
    5.9960   14.3150   26.7720 C   0  0  0  0  0  0  0  0  0  0  0  0
    4.8580   15.2800   27.1010 C   0  0  0  0  0  0  0  0  0  0  0  0
    4.0990   14.6140   28.2440 C   0  0  0  0  0  0  0  0  0  0  0  0
    5.0610   13.6110   28.8740 C   0  0  0  0  0  0  0  0  0  0  0  0
    6.3820   13.7780   28.1510 C   0  0  0  0  0  0  0  0  0  0  0  0
 11  9  1  0
 10  9  2  0
  8  9  1  6
  8  6  1  0
  6  5  1  0
  5  4  1  0
  4  3  1  0
  3  2  1  0
  2  1  2  0
 12  2  1  0
 12 19  1  1
 20 19  1  0
 21 20  1  0
 21 25  1  0
 25 24  1  0
 24 23  1  0
 23 22  1  0
 22 21  1  0
 13 12  1  0
 13 18  2  0
 18 17  1  0
 17 16  2  0
 16 15  1  0
 15 14  2  0
 14 13  1  0
  7  3  1  0
  8  7  1  0
M  END
$$$$
