XX01ZVNS2B-x3596_B_203_1_XX01ZVNS2B-x4590+B+203+1__LIG
     RDKit          3D

 22 25  0  0  0  0  0  0  0  0999 V2000
   -6.9540    5.7010  -13.2730 O   0  0  0  0  0  0  0  0  0  0  0  0
   -7.6370    4.7900  -13.7360 C   0  0  0  0  0  0  0  0  0  0  0  0
   -7.7440    4.5910  -15.2190 C   0  0  0  0  0  0  0  0  0  0  0  0
   -6.6560    4.8360  -16.0680 C   0  0  0  0  0  0  0  0  0  0  0  0
   -5.2200    5.1650  -15.7850 C   0  0  0  0  0  0  0  0  0  0  0  0
   -8.9640    4.2140  -15.7810 C   0  0  0  0  0  0  0  0  0  0  0  0
   -9.1020    4.1120  -17.1620 C   0  0  0  0  0  0  0  0  0  0  0  0
   -8.0310    4.3730  -18.0090 C   0  0  0  0  0  0  0  0  0  0  0  0
   -6.8080    4.7220  -17.4460 C   0  0  0  0  0  0  0  0  0  0  0  0
   -5.5680    4.8950  -18.0640 N   0  0  0  0  0  0  0  0  0  0  0  0
   -4.5770    5.1000  -17.1540 C   0  0  0  0  0  0  0  0  0  0  0  0
   -3.3760    5.1350  -17.4060 O   0  0  0  0  0  0  0  0  0  0  0  0
   -8.3410    3.9200  -12.9670 N   0  0  0  0  0  0  0  0  0  0  0  0
   -8.4160    3.8910  -11.5510 C   0  0  0  0  0  0  0  0  0  0  0  0
   -8.7550    2.7190  -10.8770 C   0  0  0  0  0  0  0  0  0  0  0  0
   -8.8610    2.7180   -9.4880 C   0  0  0  0  0  0  0  0  0  0  0  0
   -9.2470    1.6030   -8.5610 C   0  0  0  0  0  0  0  0  0  0  0  0
   -8.8820    2.1740   -7.2660 N   0  0  0  0  0  0  0  0  0  0  0  0
   -8.7700    3.6310   -7.2990 C   0  0  0  0  0  0  0  0  0  0  0  0
   -8.6140    3.8780   -8.7700 C   0  0  0  0  0  0  0  0  0  0  0  0
   -8.2700    5.0440   -9.4440 C   0  0  0  0  0  0  0  0  0  0  0  0
   -8.1730    5.0520  -10.8250 C   0  0  0  0  0  0  0  0  0  0  0  0
 12 11  2  0
 11  5  1  0
  5  4  1  0
  4  9  2  0
  9  8  1  0
  8  7  2  0
  7  6  1  0
  6  3  2  0
  4  3  1  0
  3  2  1  0
  2  1  2  0
 13  2  1  0
 14 13  1  0
 14 22  2  0
 22 21  1  0
 21 20  2  0
 20 16  1  0
 16 15  2  0
 15 14  1  0
 17 16  1  0
 18 17  1  0
 19 18  1  0
 20 19  1  0
 10  9  1  0
 11 10  1  0
M  END
$$$$
