A71EV2A-x5039_C_201_2_A71EV2A-x0911+A+147+1__LIG
     RDKit          3D

 20 21  0  0  0  0  0  0  0  0999 V2000
   10.3300   16.6570   19.2430 O   0  0  0  0  0  0  0  0  0  0  0  0
   10.7370   15.5050   19.4530 C   0  0  0  0  0  0  0  0  0  0  0  0
   11.0910   14.6710   18.4840 N   0  0  0  0  0  0  0  0  0  0  0  0
   10.8380   14.9590   20.8670 C   0  0  1  0  0  0  0  0  0  0  0  0
   11.9230   15.7120   21.6600 C   0  0  0  0  0  0  0  0  0  0  0  0
   11.9910   15.2180   23.1110 C   0  0  0  0  0  0  0  0  0  0  0  0
   10.6220   15.3210   23.7820 C   0  0  0  0  0  0  0  0  0  0  0  0
    9.4860   15.1180   21.5840 C   0  0  0  0  0  0  0  0  0  0  0  0
    9.5950   14.6430   22.9670 N   0  0  0  0  0  0  0  0  0  0  0  0
    8.7760   13.6540   23.4120 C   0  0  0  0  0  0  0  0  0  0  0  0
    7.8690   13.1950   22.7150 O   0  0  0  0  0  0  0  0  0  0  0  0
    8.9710   13.2070   24.8500 C   0  0  0  0  0  0  0  0  0  0  0  0
    8.1140   12.0130   25.2140 C   0  0  0  0  0  0  0  0  0  0  0  0
    8.3380   10.6910   24.7630 C   0  0  0  0  0  0  0  0  0  0  0  0
    9.7040   10.4490   23.6920 S   0  0  0  0  0  0  0  0  0  0  0  0
    9.6940    8.6670   23.4620 C   0  0  0  0  0  0  0  0  0  0  0  0
    7.0490   12.1310   26.0910 C   0  0  0  0  0  0  0  0  0  0  0  0
    6.2810   11.1110   26.4870 N   0  0  0  0  0  0  0  0  0  0  0  0
    6.5930    9.9290   25.9730 C   0  0  0  0  0  0  0  0  0  0  0  0
    7.5780    9.6490   25.1130 N   0  0  0  0  0  0  0  0  0  0  0  0
 16 15  1  0
 15 14  1  0
 14 20  2  0
 20 19  1  0
 19 18  2  0
 18 17  1  0
 17 13  2  0
 14 13  1  0
 13 12  1  0
 12 10  1  0
 11 10  2  0
 10  9  1  0
  9  7  1  0
  7  6  1  0
  6  5  1  0
  5  4  1  0
  4  2  1  6
  3  2  1  0
  2  1  2  0
  8  4  1  0
  9  8  1  0
M  END
$$$$
