XX01ZVNS2B-x3472_B_203_1_XX01ZVNS2B-x4590+B+203+1__LIG
     RDKit          3D

 31 35  0  0  0  0  0  0  0  0999 V2000
   -7.1440    2.0510  -13.8060 O   0  0  0  0  0  0  0  0  0  0  0  0
   -6.7660    3.0340  -13.1780 C   0  0  0  0  0  0  0  0  0  0  0  0
   -5.6900    3.0410  -12.3890 N   0  0  0  0  0  0  0  0  0  0  0  0
   -4.4610    2.3340  -12.7250 C   0  0  0  0  0  0  0  0  0  0  0  0
   -3.4940    3.1670  -13.5370 C   0  0  0  0  0  0  0  0  0  0  0  0
   -3.8390    3.7170  -14.7560 C   0  0  0  0  0  0  0  0  0  0  0  0
   -2.9350    4.5050  -15.4470 C   0  0  0  0  0  0  0  0  0  0  0  0
   -1.6920    4.7070  -14.9010 C   0  0  0  0  0  0  0  0  0  0  0  0
   -1.3070    4.1590  -13.7340 N   0  0  0  0  0  0  0  0  0  0  0  0
   -2.2160    3.4210  -13.0760 C   0  0  0  0  0  0  0  0  0  0  0  0
   -7.4840    4.3950  -13.2770 C   0  0  2  0  0  0  0  0  0  0  0  0
   -8.6650    4.4930  -12.4550 N   0  0  0  0  0  0  0  0  0  0  0  0
   -8.5710    4.4180  -11.0710 C   0  0  0  0  0  0  0  0  0  0  0  0
   -8.1980    5.5500  -10.3320 C   0  0  0  0  0  0  0  0  0  0  0  0
   -8.1570    5.4930   -8.9500 C   0  0  0  0  0  0  0  0  0  0  0  0
   -8.4840    4.3010   -8.3110 C   0  0  0  0  0  0  0  0  0  0  0  0
   -8.7920    3.1610   -9.0450 C   0  0  0  0  0  0  0  0  0  0  0  0
   -8.8490    3.2070  -10.4300 C   0  0  0  0  0  0  0  0  0  0  0  0
   -9.0520    2.0060   -8.1210 C   0  0  0  0  0  0  0  0  0  0  0  0
   -9.1420    2.6680   -6.8100 N   0  0  0  0  0  0  0  0  0  0  0  0
   -8.4270    3.9550   -6.8500 C   0  0  0  0  0  0  0  0  0  0  0  0
   -7.6590    4.8150  -14.7320 C   0  0  0  0  0  0  0  0  0  0  0  0
   -8.6090    4.3050  -15.6260 C   0  0  0  0  0  0  0  0  0  0  0  0
   -8.5930    4.6850  -16.9810 C   0  0  0  0  0  0  0  0  0  0  0  0
   -9.8100    4.0970  -18.0970 Cl  0  0  0  0  0  0  0  0  0  0  0  0
   -7.6500    5.5670  -17.4820 C   0  0  0  0  0  0  0  0  0  0  0  0
   -6.7430    6.1110  -16.5740 C   0  0  0  0  0  0  0  0  0  0  0  0
   -5.7300    6.9920  -16.7460 N   0  0  0  0  0  0  0  0  0  0  0  0
   -5.0310    7.1780  -15.5900 N   0  0  0  0  0  0  0  0  0  0  0  0
   -5.6520    6.4760  -14.6600 C   0  0  0  0  0  0  0  0  0  0  0  0
   -6.7090    5.7240  -15.2280 C   0  0  0  0  0  0  0  0  0  0  0  0
  1  2  2  0
  2  3  1  0
  3  4  1  0
  4  5  1  0
  5  6  2  0
  6  7  1  0
  7  8  2  0
  8  9  1  0
  9 10  2  0
  2 11  1  0
 11 12  1  6
 12 13  1  0
 13 14  2  0
 14 15  1  0
 15 16  2  0
 16 17  1  0
 17 18  2  0
 17 19  1  0
 19 20  1  0
 20 21  1  0
 11 22  1  0
 22 23  2  0
 23 24  1  0
 24 25  1  0
 24 26  2  0
 26 27  1  0
 27 28  1  0
 28 29  1  0
 29 30  2  0
 30 31  1  0
  5 10  1  0
 13 18  1  0
 22 31  1  0
 16 21  1  0
 27 31  2  0
M  END
$$$$
