XX01ZVNS2B-x0788_B_303_1_XX01ZVNS2B-x0788+B+303+1__LIG
     RDKit          3D

 15 16  0  0  0  0  0  0  0  0999 V2000
   -6.3090   -1.8980  -27.7330 O   0  0  0  0  0  0  0  0  0  0  0  0
   -5.2870   -1.3580  -28.5810 S   0  0  0  0  0  0  0  0  0  0  0  0
   -5.3540   -1.6390  -29.9870 O   0  0  0  0  0  0  0  0  0  0  0  0
   -3.7260   -1.8830  -27.9800 C   0  0  0  0  0  0  0  0  0  0  0  0
   -5.3360    0.4100  -28.4020 C   0  0  0  0  0  0  0  0  0  0  0  0
   -6.4060    1.2530  -28.2180 N   0  0  0  0  0  0  0  0  0  0  0  0
   -5.9030    2.5320  -28.1990 C   0  0  0  0  0  0  0  0  0  0  0  0
   -4.5670    2.4110  -28.3600 C   0  0  0  0  0  0  0  0  0  0  0  0
   -4.2110    1.0900  -28.4850 N   0  0  0  0  0  0  0  0  0  0  0  0
   -7.7780    0.9010  -28.5640 C   0  0  0  0  0  0  0  0  0  0  0  0
   -8.1750    1.4720  -29.8890 C   0  0  0  0  0  0  0  0  0  0  0  0
   -9.3510    2.1920  -30.0310 N   0  0  0  0  0  0  0  0  0  0  0  0
   -9.4650    2.6000  -31.2590 C   0  0  0  0  0  0  0  0  0  0  0  0
   -8.1930    2.1530  -32.3090 S   0  0  0  0  0  0  0  0  0  0  0  0
   -7.4370    1.3540  -31.0160 C   0  0  0  0  0  0  0  0  0  0  0  0
  4  2  1  0
  3  2  2  0
  2  1  2  0
  5  2  1  0
  5  9  2  0
  9  8  1  0
  8  7  2  0
  7  6  1  0
  6  5  1  0
 10  6  1  0
 11 10  1  0
 11 15  2  0
 15 14  1  0
 14 13  1  0
 13 12  2  0
 12 11  1  0
M  END
$$$$
