XX01ZVNS2B-x4959_B_203_6_XX01ZVNS2B-x4590+B+203+1__LIG
     RDKit          3D

 24 27  0  0  0  0  0  0  0  0999 V2000
  -10.0660    3.8710  -17.6540 F   0  0  0  0  0  0  0  0  0  0  0  0
   -8.8890    4.1760  -17.0410 C   0  0  0  0  0  0  0  0  0  0  0  0
   -8.8610    4.2250  -15.6660 C   0  0  0  0  0  0  0  0  0  0  0  0
   -7.7890    4.4280  -17.8320 C   0  0  0  0  0  0  0  0  0  0  0  0
   -6.5880    4.7530  -17.2050 C   0  0  0  0  0  0  0  0  0  0  0  0
   -5.3700    4.9960  -18.0060 C   0  0  0  0  0  0  0  0  0  0  0  0
   -5.2880    5.2640  -19.3570 C   0  0  0  0  0  0  0  0  0  0  0  0
   -3.9990    5.4560  -19.6550 N   0  0  0  0  0  0  0  0  0  0  0  0
   -3.2100    5.3330  -18.5640 N   0  0  0  0  0  0  0  0  0  0  0  0
   -4.0350    5.0450  -17.5630 C   0  0  0  0  0  0  0  0  0  0  0  0
   -6.5280    4.8200  -15.8120 C   0  0  0  0  0  0  0  0  0  0  0  0
   -7.6610    4.5590  -15.0420 C   0  0  0  0  0  0  0  0  0  0  0  0
   -7.5310    4.7180  -13.5570 C   0  0  0  0  0  0  0  0  0  0  0  0
   -6.6720    5.4550  -13.0730 O   0  0  0  0  0  0  0  0  0  0  0  0
   -8.4060    4.0120  -12.8030 N   0  0  0  0  0  0  0  0  0  0  0  0
   -8.5000    4.0240  -11.3820 C   0  0  0  0  0  0  0  0  0  0  0  0
   -8.7060    2.8230  -10.7060 C   0  0  0  0  0  0  0  0  0  0  0  0
   -8.7850    2.8020   -9.3140 C   0  0  0  0  0  0  0  0  0  0  0  0
   -9.0910    1.6630   -8.3850 C   0  0  0  0  0  0  0  0  0  0  0  0
   -8.7340    2.2390   -7.0830 N   0  0  0  0  0  0  0  0  0  0  0  0
   -8.7750    3.7100   -7.1230 C   0  0  0  0  0  0  0  0  0  0  0  0
   -8.6380    3.9810   -8.5950 C   0  0  0  0  0  0  0  0  0  0  0  0
   -8.4260    5.1810   -9.2660 C   0  0  0  0  0  0  0  0  0  0  0  0
   -8.3670    5.2060  -10.6530 C   0  0  0  0  0  0  0  0  0  0  0  0
 14 13  2  0
 15 13  1  0
 16 15  1  0
 16 24  2  0
 24 23  1  0
 23 22  2  0
 22 18  1  0
 18 17  2  0
 17 16  1  0
 19 18  1  0
 20 19  1  0
 21 20  1  0
 22 21  1  0
 13 12  1  0
 12  3  1  0
  3  2  2  0
  2  1  1  0
  4  2  1  0
  5  4  2  0
  6  5  1  0
  6 10  1  0
 10  9  2  0
  9  8  1  0
  8  7  1  0
  7  6  2  0
 11  5  1  0
 12 11  2  0
M  END
$$$$
