XX01ZVNS2B-x3833_B_203_1_XX01ZVNS2B-x4590+B+203+1__LIG
     RDKit          3D

 28 31  0  0  0  0  0  0  0  0999 V2000
   -6.9420    6.1590  -13.1150 O   0  0  0  0  0  0  0  0  0  0  0  0
   -7.4770    5.1580  -13.5820 C   0  0  0  0  0  0  0  0  0  0  0  0
   -7.5180    4.9310  -15.0660 C   0  0  0  0  0  0  0  0  0  0  0  0
   -8.7680    4.6710  -15.6400 C   0  0  0  0  0  0  0  0  0  0  0  0
   -8.8470    4.5320  -17.0090 C   0  0  0  0  0  0  0  0  0  0  0  0
  -10.0690    4.3120  -17.5650 F   0  0  0  0  0  0  0  0  0  0  0  0
   -7.7620    4.6100  -17.8450 C   0  0  0  0  0  0  0  0  0  0  0  0
   -6.3810    5.0230  -15.8730 C   0  0  0  0  0  0  0  0  0  0  0  0
   -6.5280    4.8350  -17.2460 C   0  0  0  0  0  0  0  0  0  0  0  0
   -5.2700    4.7820  -17.8480 N   0  0  0  0  0  0  0  0  0  0  0  0
   -4.2740    5.0250  -16.9640 C   0  0  0  0  0  0  0  0  0  0  0  0
   -3.0730    4.9460  -17.1880 O   0  0  0  0  0  0  0  0  0  0  0  0
   -4.9230    5.3590  -15.6050 C   0  0  2  0  0  0  0  0  0  0  0  0
   -4.2630    4.5440  -14.4920 C   0  0  0  0  0  0  0  0  0  0  0  0
   -4.7320    6.7300  -15.1870 O   0  0  0  0  0  0  0  0  0  0  0  0
   -4.2050    7.7260  -16.1080 C   0  0  0  0  0  0  0  0  0  0  0  0
   -2.7680    8.0380  -15.7540 C   0  0  0  0  0  0  0  0  0  0  0  0
   -5.0920    8.9390  -16.1010 C   0  0  0  0  0  0  0  0  0  0  0  0
   -8.1190    4.2230  -12.8320 N   0  0  0  0  0  0  0  0  0  0  0  0
   -8.3200    4.2050  -11.4270 C   0  0  0  0  0  0  0  0  0  0  0  0
   -8.6460    3.0030  -10.7980 C   0  0  0  0  0  0  0  0  0  0  0  0
   -8.8220    2.9600   -9.4180 C   0  0  0  0  0  0  0  0  0  0  0  0
   -9.1790    1.8020   -8.5340 C   0  0  0  0  0  0  0  0  0  0  0  0
   -8.8800    2.3420   -7.2040 N   0  0  0  0  0  0  0  0  0  0  0  0
   -8.8190    3.8050   -7.1990 C   0  0  0  0  0  0  0  0  0  0  0  0
   -8.6650    4.1120   -8.6600 C   0  0  0  0  0  0  0  0  0  0  0  0
   -8.3590    5.3150   -9.2920 C   0  0  0  0  0  0  0  0  0  0  0  0
   -8.1900    5.3620  -10.6630 C   0  0  0  0  0  0  0  0  0  0  0  0
 18 16  1  0
 17 16  1  0
 16 15  1  0
 15 13  1  0
 13 14  1  1
 13 11  1  0
 12 11  2  0
 11 10  1  0
 10  9  1  0
  9  7  2  0
  7  5  1  0
  6  5  1  0
  5  4  2  0
  4  3  1  0
  3  2  1  0
  2  1  2  0
 19  2  1  0
 20 19  1  0
 20 28  2  0
 28 27  1  0
 27 26  2  0
 26 22  1  0
 22 21  2  0
 21 20  1  0
 23 22  1  0
 24 23  1  0
 25 24  1  0
 26 25  1  0
  8  3  2  0
  9  8  1  0
 13  8  1  0
M  END
$$$$
