A71EV2A-x5394_C_201_5_A71EV2A-x0911+A+147+1__LIG
     RDKit          3D

 19 20  0  0  0  0  0  0  0  0999 V2000
    9.7150   10.4790   23.5060 Cl  0  0  0  0  0  0  0  0  0  0  0  0
    8.4080   10.7620   24.6110 C   0  0  0  0  0  0  0  0  0  0  0  0
    7.6370    9.6780   24.9970 C   0  0  0  0  0  0  0  0  0  0  0  0
    6.6060    9.8710   25.9000 C   0  0  0  0  0  0  0  0  0  0  0  0
    6.3570   11.1250   26.4020 C   0  0  0  0  0  0  0  0  0  0  0  0
    7.1330   12.2000   26.0080 C   0  0  0  0  0  0  0  0  0  0  0  0
    8.1820   12.0430   25.1030 C   0  0  0  0  0  0  0  0  0  0  0  0
    9.0800   13.2160   24.7650 C   0  0  0  0  0  0  0  0  0  0  0  0
    8.8290   13.7540   23.3660 C   0  0  0  0  0  0  0  0  0  0  0  0
    7.9350   13.2990   22.6620 O   0  0  0  0  0  0  0  0  0  0  0  0
    9.6400   14.7520   22.9400 N   0  0  0  0  0  0  0  0  0  0  0  0
   10.6860   15.4020   23.7500 C   0  0  0  0  0  0  0  0  0  0  0  0
   12.0460   15.2600   23.0790 C   0  0  0  0  0  0  0  0  0  0  0  0
   11.9910   15.7470   21.6150 C   0  0  0  0  0  0  0  0  0  0  0  0
    9.5370   15.2540   21.5680 C   0  0  0  0  0  0  0  0  0  0  0  0
   10.8630   15.0420   20.8340 C   0  0  1  0  0  0  0  0  0  0  0  0
   10.7780   15.5540   19.4060 C   0  0  0  0  0  0  0  0  0  0  0  0
   10.4230   16.7170   19.1640 O   0  0  0  0  0  0  0  0  0  0  0  0
   11.0690   14.6710   18.4570 N   0  0  0  0  0  0  0  0  0  0  0  0
 19 17  1  0
 18 17  2  0
 16 17  1  6
 16 14  1  0
 14 13  1  0
 13 12  1  0
 12 11  1  0
 11  9  1  0
 10  9  2  0
  9  8  1  0
  8  7  1  0
  7  6  2  0
  6  5  1  0
  5  4  2  0
  4  3  1  0
  3  2  2  0
  7  2  1  0
  2  1  1  0
 15 11  1  0
 16 15  1  0
M  END
$$$$
