XX01ZVNS2B-x5302_B_203_6_XX01ZVNS2B-x4590+B+203+1__LIG
     RDKit          3D

 27 31  0  0  0  0  0  0  0  0999 V2000
  -10.3950    4.0100  -18.0010 Cl  0  0  0  0  0  0  0  0  0  0  0  0
   -8.8630    4.2370  -17.1910 C   0  0  0  0  0  0  0  0  0  0  0  0
   -8.8200    4.2370  -15.8000 C   0  0  0  0  0  0  0  0  0  0  0  0
   -7.7390    4.4680  -17.9610 C   0  0  0  0  0  0  0  0  0  0  0  0
   -6.5530    4.7300  -17.2940 C   0  0  0  0  0  0  0  0  0  0  0  0
   -5.3010    4.9850  -17.7760 N   0  0  0  0  0  0  0  0  0  0  0  0
   -4.8810    5.1110  -19.1760 C   0  0  2  0  0  0  0  0  0  0  0  0
   -3.4280    4.5460  -19.4440 C   0  0  0  0  0  0  0  0  0  0  0  0
   -2.8240    5.3850  -20.4650 N   0  0  0  0  0  0  0  0  0  0  0  0
   -3.8020    6.4490  -20.8220 C   0  0  0  0  0  0  0  0  0  0  0  0
   -4.7620    6.5620  -19.6400 C   0  0  0  0  0  0  0  0  0  0  0  0
   -4.4050    5.1820  -16.7600 N   0  0  0  0  0  0  0  0  0  0  0  0
   -5.0890    5.0640  -15.6380 C   0  0  0  0  0  0  0  0  0  0  0  0
   -6.4550    4.7680  -15.8920 C   0  0  0  0  0  0  0  0  0  0  0  0
   -7.6170    4.5150  -15.1320 C   0  0  0  0  0  0  0  0  0  0  0  0
   -7.5660    4.6740  -13.6340 C   0  0  0  0  0  0  0  0  0  0  0  0
   -6.7180    5.4030  -13.1200 O   0  0  0  0  0  0  0  0  0  0  0  0
   -8.4700    3.9750  -12.8890 N   0  0  0  0  0  0  0  0  0  0  0  0
   -8.5600    3.9860  -11.4590 C   0  0  0  0  0  0  0  0  0  0  0  0
   -8.7550    2.7980  -10.7540 C   0  0  0  0  0  0  0  0  0  0  0  0
   -8.8160    2.8040   -9.3600 C   0  0  0  0  0  0  0  0  0  0  0  0
   -9.0750    1.6760   -8.4030 C   0  0  0  0  0  0  0  0  0  0  0  0
   -8.7700    2.2770   -7.1030 N   0  0  0  0  0  0  0  0  0  0  0  0
   -8.7520    3.7550   -7.1870 C   0  0  0  0  0  0  0  0  0  0  0  0
   -8.6640    3.9990   -8.6660 C   0  0  0  0  0  0  0  0  0  0  0  0
   -8.4670    5.1860   -9.3650 C   0  0  0  0  0  0  0  0  0  0  0  0
   -8.4240    5.1820  -10.7540 C   0  0  0  0  0  0  0  0  0  0  0  0
 17 16  2  0
 18 16  1  0
 19 18  1  0
 19 27  2  0
 27 26  1  0
 26 25  2  0
 25 21  1  0
 21 20  2  0
 20 19  1  0
 22 21  1  0
 23 22  1  0
 24 23  1  0
 25 24  1  0
 16 15  1  0
 15  3  1  0
  3  2  2  0
  2  1  1  0
  4  2  1  0
  5  4  2  0
  5 14  1  0
 15 14  2  0
 14 13  1  0
 13 12  2  0
 12  6  1  0
  6  5  1  0
  7  6  1  1
  7 11  1  0
 11 10  1  0
 10  9  1  0
  9  8  1  0
  8  7  1  0
M  END
$$$$
