A71EV2A-x4583_A_201_1_A71EV2A-x0911+A+147+1__LIG
     RDKit          3D

 21 23  0  0  0  0  0  0  0  0999 V2000
   10.2540   16.6660   19.2300 O   0  0  0  0  0  0  0  0  0  0  0  0
   10.5910   15.5020   19.4670 C   0  0  0  0  0  0  0  0  0  0  0  0
   10.8480   14.6180   18.5120 N   0  0  0  0  0  0  0  0  0  0  0  0
   10.6110   14.9660   20.8850 C   0  0  1  0  0  0  0  0  0  0  0  0
   11.6330   15.7070   21.7640 C   0  0  0  0  0  0  0  0  0  0  0  0
   11.5790   15.1720   23.2020 C   0  0  0  0  0  0  0  0  0  0  0  0
   10.1570   15.2610   23.7560 C   0  0  0  0  0  0  0  0  0  0  0  0
    9.2080   15.1650   21.4830 C   0  0  0  0  0  0  0  0  0  0  0  0
    9.1760   14.6370   22.8490 N   0  0  0  0  0  0  0  0  0  0  0  0
    8.3130   13.6490   23.1810 C   0  0  0  0  0  0  0  0  0  0  0  0
    7.4820   13.2300   22.3900 O   0  0  0  0  0  0  0  0  0  0  0  0
    8.3670   13.0950   24.6030 C   0  0  2  0  0  0  0  0  0  0  0  0
    7.9170   11.6960   24.6360 N   0  0  0  0  0  0  0  0  0  0  0  0
    8.8970   10.6770   24.2810 C   0  0  0  0  0  0  0  0  0  0  0  0
    7.3770   13.8740   25.4870 C   0  0  0  0  0  0  0  0  0  0  0  0
    6.6720   12.7730   26.2280 C   0  0  0  0  0  0  0  0  0  0  0  0
    7.0440   11.5380   25.7120 C   0  0  0  0  0  0  0  0  0  0  0  0
    5.7830   12.8350   27.2940 C   0  0  0  0  0  0  0  0  0  0  0  0
    5.2910   11.6610   27.8400 C   0  0  0  0  0  0  0  0  0  0  0  0
    5.6770   10.4350   27.3290 C   0  0  0  0  0  0  0  0  0  0  0  0
    6.5520   10.3580   26.2520 C   0  0  0  0  0  0  0  0  0  0  0  0
 14 13  1  0
 13 17  1  0
 17 21  2  0
 21 20  1  0
 20 19  2  0
 19 18  1  0
 18 16  2  0
 17 16  1  0
 16 15  1  0
 15 12  1  0
 13 12  1  0
 12 10  1  6
 11 10  2  0
 10  9  1  0
  9  7  1  0
  7  6  1  0
  6  5  1  0
  5  4  1  0
  4  2  1  6
  3  2  1  0
  2  1  2  0
  8  4  1  0
  9  8  1  0
M  END
$$$$
