A71EV2A-x4415_A_201_1_A71EV2A-x0911+A+147+1__LIG
     RDKit          3D

 22 23  0  0  0  0  0  0  0  0999 V2000
   10.4590   16.6920   19.2560 O   0  0  0  0  0  0  0  0  0  0  0  0
   10.7720   15.5120   19.4540 C   0  0  0  0  0  0  0  0  0  0  0  0
   11.0330   14.6650   18.4760 N   0  0  0  0  0  0  0  0  0  0  0  0
   10.8130   14.9360   20.8580 C   0  0  1  0  0  0  0  0  0  0  0  0
   11.8580   15.6430   21.7320 C   0  0  0  0  0  0  0  0  0  0  0  0
   11.8770   15.0520   23.1450 C   0  0  0  0  0  0  0  0  0  0  0  0
   10.5050   15.1330   23.7720 C   0  0  0  0  0  0  0  0  0  0  0  0
    9.4460   15.1240   21.5150 C   0  0  0  0  0  0  0  0  0  0  0  0
    9.4660   14.5890   22.8800 N   0  0  0  0  0  0  0  0  0  0  0  0
    8.5890   13.6130   23.2450 C   0  0  0  0  0  0  0  0  0  0  0  0
    7.7440   13.1830   22.4710 O   0  0  0  0  0  0  0  0  0  0  0  0
    8.6660   13.2000   24.5340 N   0  0  0  0  0  0  0  0  0  0  0  0
    7.8820   12.1870   25.1190 C   0  0  0  0  0  0  0  0  0  0  0  0
    8.0340   10.8610   24.6680 C   0  0  0  0  0  0  0  0  0  0  0  0
    9.0210   10.6900   23.7380 O   0  0  0  0  0  0  0  0  0  0  0  0
    9.4200    9.3530   23.4140 C   0  0  0  0  0  0  0  0  0  0  0  0
    6.9850   12.4630   26.1300 C   0  0  0  0  0  0  0  0  0  0  0  0
    6.2400   11.4420   26.7060 C   0  0  0  0  0  0  0  0  0  0  0  0
    5.4340   11.7420   27.8640 C   0  0  0  0  0  0  0  0  0  0  0  0
    4.8240   12.0220   28.7870 N   0  0  0  0  0  0  0  0  0  0  0  0
    6.3590   10.1370   26.2350 C   0  0  0  0  0  0  0  0  0  0  0  0
    7.2570    9.8390   25.2170 C   0  0  0  0  0  0  0  0  0  0  0  0
 16 15  1  0
 15 14  1  0
 14 22  2  0
 22 21  1  0
 21 18  2  0
 19 18  1  0
 20 19  3  0
 18 17  1  0
 17 13  2  0
 14 13  1  0
 13 12  1  0
 12 10  1  0
 11 10  2  0
 10  9  1  0
  9  7  1  0
  7  6  1  0
  6  5  1  0
  5  4  1  0
  4  2  1  6
  3  2  1  0
  2  1  2  0
  8  4  1  0
  9  8  1  0
M  END
$$$$
