A71EV2A-x5022_C_201_1_A71EV2A-x0911+A+147+1__LIG
     RDKit          3D

 24 26  0  0  0  0  0  0  0  0999 V2000
   10.3920   16.7050   19.0810 O   0  0  0  0  0  0  0  0  0  0  0  0
   10.7490   15.5370   19.3170 C   0  0  0  0  0  0  0  0  0  0  0  0
   10.9430   14.6240   18.3680 N   0  0  0  0  0  0  0  0  0  0  0  0
   10.9320   15.0460   20.7420 C   0  0  1  0  0  0  0  0  0  0  0  0
   12.0620   15.8050   21.4660 C   0  0  0  0  0  0  0  0  0  0  0  0
   12.1790   15.3500   22.9360 C   0  0  0  0  0  0  0  0  0  0  0  0
   10.8400   15.4900   23.6460 C   0  0  0  0  0  0  0  0  0  0  0  0
    9.6240   15.2350   21.5150 C   0  0  0  0  0  0  0  0  0  0  0  0
    9.7890   14.7800   22.8970 N   0  0  0  0  0  0  0  0  0  0  0  0
    8.9320   13.8370   23.3980 C   0  0  0  0  0  0  0  0  0  0  0  0
    7.9910   13.3950   22.7360 O   0  0  0  0  0  0  0  0  0  0  0  0
    9.1660   13.4420   24.6860 N   0  0  0  0  0  0  0  0  0  0  0  0
    8.3180   12.5100   25.3350 C   0  0  0  0  0  0  0  0  0  0  0  0
    8.4350   11.1310   25.0840 C   0  0  0  0  0  0  0  0  0  0  0  0
    9.7540   10.5900   24.0550 S   0  0  0  0  0  0  0  0  0  0  0  0
    9.4740    8.7980   23.9790 C   0  0  0  0  0  0  0  0  0  0  0  0
    7.3160   12.9730   26.1830 C   0  0  0  0  0  0  0  0  0  0  0  0
    6.4420   12.0570   26.7680 C   0  0  0  0  0  0  0  0  0  0  0  0
    5.4640   12.5030   27.8300 C   0  0  0  0  0  0  0  0  0  0  0  0
    4.5090   11.4050   28.3130 C   0  0  0  0  0  0  0  0  0  0  0  0
    5.1120   10.0100   28.3270 C   0  0  0  0  0  0  0  0  0  0  0  0
    5.6620    9.6440   26.9620 C   0  0  0  0  0  0  0  0  0  0  0  0
    6.6040   10.6910   26.4280 C   0  0  0  0  0  0  0  0  0  0  0  0
    7.5810   10.2510   25.6170 N   0  0  0  0  0  0  0  0  0  0  0  0
 16 15  1  0
 15 14  1  0
 14 24  2  0
 24 23  1  0
 23 18  2  0
 18 17  1  0
 17 13  2  0
 14 13  1  0
 13 12  1  0
 12 10  1  0
 11 10  2  0
 10  9  1  0
  9  7  1  0
  7  6  1  0
  6  5  1  0
  5  4  1  0
  4  2  1  6
  3  2  1  0
  2  1  2  0
  8  4  1  0
  9  8  1  0
 19 18  1  0
 20 19  1  0
 21 20  1  0
 22 21  1  0
 23 22  1  0
M  END
$$$$
