XX01ZVNS2B-x4931_B_203_6_XX01ZVNS2B-x4590+B+203+1__LIG
     RDKit          3D

 26 30  0  0  0  0  0  0  0  0999 V2000
   -6.4620    5.3890  -12.8450 O   0  0  0  0  0  0  0  0  0  0  0  0
   -7.3170    4.7040  -13.4040 C   0  0  0  0  0  0  0  0  0  0  0  0
   -7.3790    4.6060  -14.8970 C   0  0  0  0  0  0  0  0  0  0  0  0
   -8.5590    4.2170  -15.5350 C   0  0  0  0  0  0  0  0  0  0  0  0
   -8.6420    4.1580  -16.9180 C   0  0  0  0  0  0  0  0  0  0  0  0
   -6.2520    4.9310  -15.6540 C   0  0  0  0  0  0  0  0  0  0  0  0
   -6.3090    4.8720  -17.0480 C   0  0  0  0  0  0  0  0  0  0  0  0
   -7.5170    4.4900  -17.6620 C   0  0  0  0  0  0  0  0  0  0  0  0
   -7.3190    4.5190  -19.0220 N   0  0  0  0  0  0  0  0  0  0  0  0
   -6.0310    4.9060  -19.2760 C   0  0  0  0  0  0  0  0  0  0  0  0
   -5.3620    5.1220  -18.1070 C   0  0  0  0  0  0  0  0  0  0  0  0
   -3.9050    5.4700  -17.9550 C   0  0  0  0  0  0  0  0  0  0  0  0
   -3.5120    6.9660  -17.8940 C   0  0  0  0  0  0  0  0  0  0  0  0
   -3.1110    5.2800  -16.6390 C   0  0  0  0  0  0  0  0  0  0  0  0
   -2.4050    6.5460  -16.9870 N   0  0  0  0  0  0  0  0  0  0  0  0
   -1.0620    6.4390  -17.5910 C   0  0  0  0  0  0  0  0  0  0  0  0
   -8.2520    4.0010  -12.7240 N   0  0  0  0  0  0  0  0  0  0  0  0
   -8.3820    3.9650  -11.3100 C   0  0  0  0  0  0  0  0  0  0  0  0
   -8.6420    2.7690  -10.6450 C   0  0  0  0  0  0  0  0  0  0  0  0
   -8.7340    2.7460   -9.2540 C   0  0  0  0  0  0  0  0  0  0  0  0
   -9.0010    1.5930   -8.3300 C   0  0  0  0  0  0  0  0  0  0  0  0
   -8.7580    2.1830   -7.0040 N   0  0  0  0  0  0  0  0  0  0  0  0
   -8.6570    3.6430   -7.0560 C   0  0  0  0  0  0  0  0  0  0  0  0
   -8.5740    3.9210   -8.5280 C   0  0  0  0  0  0  0  0  0  0  0  0
   -8.3400    5.1190   -9.1940 C   0  0  0  0  0  0  0  0  0  0  0  0
   -8.2350    5.1410  -10.5780 C   0  0  0  0  0  0  0  0  0  0  0  0
 16 15  1  0
 15 13  1  0
 13 12  1  0
 12 11  1  0
 11 10  2  0
 10  9  1  0
  9  8  1  0
  8  5  1  0
  5  4  2  0
  4  3  1  0
  3  2  1  0
  2  1  2  0
 17  2  1  0
 18 17  1  0
 18 26  2  0
 26 25  1  0
 25 24  2  0
 24 20  1  0
 20 19  2  0
 19 18  1  0
 21 20  1  0
 22 21  1  0
 23 22  1  0
 24 23  1  0
  6  3  2  0
  7  6  1  0
 11  7  1  0
  8  7  2  0
 14 12  1  0
 15 14  1  0
M  END
$$$$
