XX01ZVNS2B-x4039_B_203_1_XX01ZVNS2B-x4590+B+203+1__LIG
     RDKit          3D

 22 25  0  0  0  0  0  0  0  0999 V2000
   -6.2330    4.9080  -12.6220 O   0  0  0  0  0  0  0  0  0  0  0  0
   -7.2830    4.7410  -13.1890 C   0  0  0  0  0  0  0  0  0  0  0  0
   -7.4550    4.7570  -14.6630 C   0  0  0  0  0  0  0  0  0  0  0  0
   -6.3770    5.0190  -15.5060 C   0  0  0  0  0  0  0  0  0  0  0  0
   -8.6920    4.4060  -15.2190 C   0  0  0  0  0  0  0  0  0  0  0  0
   -8.8460    4.2690  -16.5890 C   0  0  0  0  0  0  0  0  0  0  0  0
   -7.7480    4.5040  -17.4070 C   0  0  0  0  0  0  0  0  0  0  0  0
   -6.5220    4.8930  -16.8810 C   0  0  0  0  0  0  0  0  0  0  0  0
   -5.5640    5.0760  -18.0200 C   0  0  0  0  0  0  0  0  0  0  0  0
   -7.6320    4.3610  -18.7890 N   0  0  0  0  0  0  0  0  0  0  0  0
   -6.3830    4.6700  -19.2250 C   0  0  0  0  0  0  0  0  0  0  0  0
   -6.0010    4.6100  -20.3890 O   0  0  0  0  0  0  0  0  0  0  0  0
   -8.4590    4.4490  -12.5470 O   0  0  0  0  0  0  0  0  0  0  0  0
   -8.4970    4.3810  -11.1410 C   0  0  0  0  0  0  0  0  0  0  0  0
   -8.7850    3.1660  -10.5340 C   0  0  0  0  0  0  0  0  0  0  0  0
   -8.8450    3.0840   -9.1470 C   0  0  0  0  0  0  0  0  0  0  0  0
   -9.1710    1.9060   -8.2770 C   0  0  0  0  0  0  0  0  0  0  0  0
   -8.7970    2.4090   -6.9570 N   0  0  0  0  0  0  0  0  0  0  0  0
   -8.6780    3.8670   -6.9120 C   0  0  0  0  0  0  0  0  0  0  0  0
   -8.6010    4.2080   -8.3700 C   0  0  0  0  0  0  0  0  0  0  0  0
   -8.3180    5.4240   -8.9880 C   0  0  0  0  0  0  0  0  0  0  0  0
   -8.2680    5.5150  -10.3690 C   0  0  0  0  0  0  0  0  0  0  0  0
 12 11  2  0
 11  9  1  0
  9  8  1  0
  8  4  2  0
  4  3  1  0
  3  2  1  0
  2  1  2  0
 13  2  1  0
 14 13  1  0
 14 22  2  0
 22 21  1  0
 21 20  2  0
 20 16  1  0
 16 15  2  0
 15 14  1  0
 17 16  1  0
 18 17  1  0
 19 18  1  0
 20 19  1  0
  5  3  2  0
  6  5  1  0
  7  6  2  0
  8  7  1  0
 10  7  1  0
 11 10  1  0
M  END
$$$$
