A71EV2A-x3938_A_201_1_A71EV2A-x0911+A+147+1__LIG
     RDKit          3D

 18 19  0  0  0  0  0  0  0  0999 V2000
   11.0340   14.3930   18.5210 O   0  0  0  0  0  0  0  0  0  0  0  0
   10.4770   15.0710   19.3930 C   0  0  0  0  0  0  0  0  0  0  0  0
    9.8690   16.2180   19.1350 N   0  0  0  0  0  0  0  0  0  0  0  0
   10.4850   14.6340   20.8480 C   0  0  1  0  0  0  0  0  0  0  0  0
   11.5570   15.3770   21.6670 C   0  0  0  0  0  0  0  0  0  0  0  0
   11.6980   14.7260   23.0380 C   0  0  0  0  0  0  0  0  0  0  0  0
   10.3620   14.7570   23.7690 C   0  0  0  0  0  0  0  0  0  0  0  0
    9.1590   14.7720   21.5990 C   0  0  0  0  0  0  0  0  0  0  0  0
    9.2770   14.1940   22.9470 N   0  0  0  0  0  0  0  0  0  0  0  0
    8.3900   13.2810   23.3890 C   0  0  0  0  0  0  0  0  0  0  0  0
    7.4530   12.9590   22.6930 O   0  0  0  0  0  0  0  0  0  0  0  0
    8.4290   12.7280   24.9110 C   0  0  2  0  0  0  0  0  0  0  0  0
    7.8700   13.8300   25.8180 C   0  0  0  0  0  0  0  0  0  0  0  0
    9.8090   12.5310   25.2640 O   0  0  0  0  0  0  0  0  0  0  0  0
   10.4850   11.5640   24.4370 C   0  0  0  0  0  0  0  0  0  0  0  0
    9.8600   10.1980   24.5310 C   0  0  0  0  0  0  0  0  0  0  0  0
    8.3560   10.2620   24.3400 C   0  0  0  0  0  0  0  0  0  0  0  0
    7.7130   11.4020   25.1330 C   0  0  0  0  0  0  0  0  0  0  0  0
 12 13  1  1
 12 10  1  0
 11 10  2  0
 10  9  1  0
  9  7  1  0
  7  6  1  0
  6  5  1  0
  5  4  1  0
  4  2  1  6
  3  2  1  0
  2  1  2  0
  8  4  1  0
  9  8  1  0
 12 18  1  0
 18 17  1  0
 17 16  1  0
 16 15  1  0
 15 14  1  0
 14 12  1  0
M  END
$$$$
