XX01ZVNS2B-x3441_B_203_1_XX01ZVNS2B-x4590+B+203+1__LIG
     RDKit          3D

 22 25  0  0  0  0  0  0  0  0999 V2000
   -6.8080    5.6580  -13.3980 O   0  0  0  0  0  0  0  0  0  0  0  0
   -7.5970    4.8280  -13.8450 C   0  0  0  0  0  0  0  0  0  0  0  0
   -8.3040    3.9750  -13.0650 N   0  0  0  0  0  0  0  0  0  0  0  0
   -8.4340    4.0090  -11.6520 C   0  0  0  0  0  0  0  0  0  0  0  0
   -8.1980    5.1950  -10.9580 C   0  0  0  0  0  0  0  0  0  0  0  0
   -8.3010    5.2310   -9.5780 C   0  0  0  0  0  0  0  0  0  0  0  0
   -8.6090    4.0590   -8.8950 C   0  0  0  0  0  0  0  0  0  0  0  0
   -8.8660    2.8810   -9.5830 C   0  0  0  0  0  0  0  0  0  0  0  0
   -8.7390    2.8260  -10.9650 C   0  0  0  0  0  0  0  0  0  0  0  0
   -9.2220    1.8010   -8.6020 C   0  0  0  0  0  0  0  0  0  0  0  0
   -8.7110    2.3640   -7.3430 N   0  0  0  0  0  0  0  0  0  0  0  0
   -8.8050    3.8280   -7.4220 C   0  0  0  0  0  0  0  0  0  0  0  0
   -7.7620    4.6810  -15.3280 C   0  0  0  0  0  0  0  0  0  0  0  0
   -8.9570    4.2280  -15.8740 C   0  0  0  0  0  0  0  0  0  0  0  0
   -9.0970    4.1070  -17.2410 C   0  0  0  0  0  0  0  0  0  0  0  0
  -10.2950    3.7020  -17.7520 F   0  0  0  0  0  0  0  0  0  0  0  0
   -8.0830    4.3570  -18.1280 C   0  0  0  0  0  0  0  0  0  0  0  0
   -6.8690    4.7920  -17.6160 C   0  0  0  0  0  0  0  0  0  0  0  0
   -5.6860    5.0730  -18.2080 N   0  0  0  0  0  0  0  0  0  0  0  0
   -4.7510    5.4380  -17.2890 N   0  0  0  0  0  0  0  0  0  0  0  0
   -5.3270    5.3420  -16.1030 C   0  0  0  0  0  0  0  0  0  0  0  0
   -6.6790    4.9370  -16.2300 C   0  0  0  0  0  0  0  0  0  0  0  0
  1  2  2  0
  2  3  1  0
  3  4  1  0
  4  5  2  0
  5  6  1  0
  6  7  2  0
  7  8  1  0
  8  9  2  0
  8 10  1  0
 10 11  1  0
 11 12  1  0
  2 13  1  0
 13 14  2  0
 14 15  1  0
 15 16  1  0
 15 17  2  0
 17 18  1  0
 18 19  1  0
 19 20  1  0
 20 21  2  0
 21 22  1  0
  4  9  1  0
 13 22  1  0
  7 12  1  0
 18 22  2  0
M  END
$$$$
