A71EV2A-x4320_A_201_1_A71EV2A-x0911+A+147+1__LIG
     RDKit          3D

 23 25  0  0  0  0  0  0  0  0999 V2000
    2.7550   12.4380   28.9830 O   0  0  0  0  0  0  0  0  0  0  0  0
    3.5940   12.6200   28.1000 C   0  0  0  0  0  0  0  0  0  0  0  0
    4.6610   11.8060   27.9660 N   0  0  0  0  0  0  0  0  0  0  0  0
    5.6700   11.9610   27.0140 C   0  0  0  0  0  0  0  0  0  0  0  0
    6.5210   10.9040   26.6950 C   0  0  0  0  0  0  0  0  0  0  0  0
    7.5190   11.0780   25.7550 C   0  0  0  0  0  0  0  0  0  0  0  0
    3.4920   13.7570   27.1210 C   0  0  0  0  0  0  0  0  0  0  0  0
    4.8410   14.3070   26.6740 C   0  0  0  0  0  0  0  0  0  0  0  0
    5.8160   13.1960   26.3670 C   0  0  0  0  0  0  0  0  0  0  0  0
    6.8330   13.3410   25.4230 C   0  0  0  0  0  0  0  0  0  0  0  0
    7.6950   12.2940   25.1070 C   0  0  0  0  0  0  0  0  0  0  0  0
    8.8250   12.4920   24.1140 C   0  0  0  0  0  0  0  0  0  0  0  0
    8.4650   13.4330   22.9760 C   0  0  0  0  0  0  0  0  0  0  0  0
    7.4490   13.2710   22.3400 O   0  0  0  0  0  0  0  0  0  0  0  0
    9.3410   14.4060   22.6580 N   0  0  0  0  0  0  0  0  0  0  0  0
   10.5410   14.7400   23.4400 C   0  0  0  0  0  0  0  0  0  0  0  0
   11.6470   15.4080   22.5870 C   0  0  0  0  0  0  0  0  0  0  0  0
   11.7710   14.7720   21.2110 C   0  0  0  0  0  0  0  0  0  0  0  0
    9.2410   15.0830   21.3630 C   0  0  0  0  0  0  0  0  0  0  0  0
   10.4110   14.5950   20.5270 C   0  0  1  0  0  0  0  0  0  0  0  0
   10.4880   15.1340   19.1140 C   0  0  0  0  0  0  0  0  0  0  0  0
    9.9460   16.1970   18.8030 O   0  0  0  0  0  0  0  0  0  0  0  0
   11.2470   14.4360   18.2990 N   0  0  0  0  0  0  0  0  0  0  0  0
 23 21  1  0
 22 21  2  0
 20 21  1  6
 20 18  1  0
 18 17  1  0
 17 16  1  0
 16 15  1  0
 15 13  1  0
 14 13  2  0
 13 12  1  0
 12 11  1  0
 11  6  2  0
  6  5  1  0
  5  4  2  0
  4  9  1  0
 10  9  2  0
 11 10  1  0
  9  8  1  0
  8  7  1  0
  7  2  1  0
  2  1  2  0
  3  2  1  0
  4  3  1  0
 19 15  1  0
 20 19  1  0
M  END
$$$$
