A4298a
     RDKit          3D

 20 21  0  0  0  0  0  0  0  0999 V2000
   10.2790   16.6690   19.0850 O   0  0  0  0  0  0  0  0  0  0  0  0
   10.5670   15.5030   19.3800 C   0  0  0  0  0  0  0  0  0  0  0  0
   10.9270   14.5940   18.4790 N   0  0  0  0  0  0  0  0  0  0  0  0
   10.5100   15.0230   20.8190 C   0  0  1  0  0  0  0  0  0  0  0  0
   11.6890   15.5510   21.6580 C   0  0  0  0  0  0  0  0  0  0  0  0
   11.6470   14.9660   23.0730 C   0  0  0  0  0  0  0  0  0  0  0  0
   10.3030   15.2630   23.7450 C   0  0  0  0  0  0  0  0  0  0  0  0
    9.2130   15.4270   21.5290 C   0  0  0  0  0  0  0  0  0  0  0  0
    9.1840   14.8540   22.8810 N   0  0  0  0  0  0  0  0  0  0  0  0
    8.3330   13.8280   23.1660 C   0  0  0  0  0  0  0  0  0  0  0  0
    7.6210   13.3370   22.3110 O   0  0  0  0  0  0  0  0  0  0  0  0
    8.2450   13.4560   24.4740 N   0  0  0  0  0  0  0  0  0  0  0  0
    7.6340   12.3010   24.9850 C   0  0  0  0  0  0  0  0  0  0  0  0
    6.6420   12.2760   25.9620 C   0  0  0  0  0  0  0  0  0  0  0  0
    6.1320   11.0400   26.3360 C   0  0  0  0  0  0  0  0  0  0  0  0
    6.6130    9.8870   25.7440 C   0  0  0  0  0  0  0  0  0  0  0  0
    8.1280   11.2000   24.4160 N   0  0  0  0  0  0  0  0  0  0  0  0
    7.6270   10.0300   24.7960 C   0  0  0  0  0  0  0  0  0  0  0  0
    8.0550    8.8990   24.2060 O   0  0  0  0  0  0  0  0  0  0  0  0
    9.2790    8.9470   23.4560 C   0  0  0  0  0  0  0  0  0  0  0  0
 20 19  1  0
 19 18  1  0
 18 16  2  0
 16 15  1  0
 15 14  2  0
 14 13  1  0
 13 12  1  0
 12 10  1  0
 11 10  2  0
 10  9  1  0
  9  7  1  0
  7  6  1  0
  6  5  1  0
  5  4  1  0
  4  2  1  6
  3  2  1  0
  2  1  2  0
  8  4  1  0
  9  8  1  0
 17 13  2  0
 18 17  1  0
M  END
>  <smiles>  (1) 
COc1cccc(NC(=O)N2CCC[C@H](C(N)=O)C2)n1

>  <inchikey>  (1) 
YPPPQJNCBBACKM-VIFPVBQESA-N

>  <alias>  (1) 
A4298a

$$$$
A0451a
     RDKit          3D

 14 15  0  0  0  0  0  0  0  0999 V2000
   10.5800   14.1140   24.6010 O   0  0  0  0  0  0  0  0  0  0  0  0
   10.7620   13.1860   23.8320 C   0  0  0  0  0  0  0  0  0  0  0  0
   11.7610   13.1720   22.9560 N   0  0  0  0  0  0  0  0  0  0  0  0
   12.1050   14.3360   22.1600 C   0  0  0  0  0  0  0  0  0  0  0  0
    9.8950   11.9830   23.8690 C   0  0  0  0  0  0  0  0  0  0  0  0
    8.6880   11.7750   24.6420 C   0  0  0  0  0  0  0  0  0  0  0  0
    8.2420   10.4780   24.3480 C   0  0  0  0  0  0  0  0  0  0  0  0
    9.1190    9.9240   23.4400 N   0  0  0  0  0  0  0  0  0  0  0  0
    9.0080    8.5980   22.8510 C   0  0  0  0  0  0  0  0  0  0  0  0
   10.1020   10.8310   23.1690 C   0  0  0  0  0  0  0  0  0  0  0  0
    7.9540   12.5500   25.5390 C   0  0  0  0  0  0  0  0  0  0  0  0
    6.8040   12.0280   26.1160 C   0  0  0  0  0  0  0  0  0  0  0  0
    6.3840   10.7400   25.8200 C   0  0  0  0  0  0  0  0  0  0  0  0
    7.1010    9.9460   24.9350 C   0  0  0  0  0  0  0  0  0  0  0  0
  4  3  1  0
  3  2  1  0
  2  1  2  0
  5  2  1  0
  5 10  2  0
 10  8  1  0
  9  8  1  0
  8  7  1  0
  7 14  2  0
 14 13  1  0
 13 12  2  0
 12 11  1  0
 11  6  2  0
  6  5  1  0
  7  6  1  0
M  END
>  <smiles>  (2) 
CNC(=O)c1cn(C)c2ccccc12

>  <inchikey>  (2) 
OHXYWSIWHXTWCT-UHFFFAOYSA-N

>  <alias>  (2) 
A0451a

$$$$
A0469a
     RDKit          3D

 15 16  0  0  0  0  0  0  0  0999 V2000
   11.4190   23.2470   24.3600 C   0  0  0  0  0  0  0  0  0  0  0  0
   11.8540   22.6290   25.6760 C   0  0  0  0  0  0  0  0  0  0  0  0
   12.9680   21.6190   25.4490 C   0  0  0  0  0  0  0  0  0  0  0  0
   10.7120   22.0810   26.4410 N   0  0  0  0  0  0  0  0  0  0  0  0
   11.0720   21.3410   27.6620 C   0  0  0  0  0  0  0  0  0  0  0  0
   10.1110   21.6140   28.8110 C   0  0  0  0  0  0  0  0  0  0  0  0
    8.7190   21.4570   28.3770 N   0  0  0  0  0  0  0  0  0  0  0  0
    8.4030   22.3560   27.2620 C   0  0  0  0  0  0  0  0  0  0  0  0
    9.6490   23.0530   26.7400 C   0  0  0  0  0  0  0  0  0  0  0  0
    7.9690   20.3370   28.6300 C   0  0  0  0  0  0  0  0  0  0  0  0
    8.5290   19.3910   29.4080 N   0  0  0  0  0  0  0  0  0  0  0  0
    7.7990   18.2760   29.5700 C   0  0  0  0  0  0  0  0  0  0  0  0
    6.5640   18.0810   28.9920 C   0  0  0  0  0  0  0  0  0  0  0  0
    6.0860   19.1250   28.2340 C   0  0  0  0  0  0  0  0  0  0  0  0
    6.7590   20.2680   28.0380 N   0  0  0  0  0  0  0  0  0  0  0  0
  3  2  1  0
  2  1  1  0
  4  2  1  0
  4  9  1  0
  9  8  1  0
  8  7  1  0
  7  6  1  0
  6  5  1  0
  5  4  1  0
 10  7  1  0
 10 15  2  0
 15 14  1  0
 14 13  2  0
 13 12  1  0
 12 11  2  0
 11 10  1  0
M  END
>  <smiles>  (3) 
CC(C)N1CCN(c2ncccn2)CC1

>  <inchikey>  (3) 
JMSBGUKOMZSBMF-UHFFFAOYSA-N

>  <alias>  (3) 
A0469a

$$$$
A0473a
     RDKit          3D

 15 16  0  0  0  0  0  0  0  0999 V2000
   -0.5550   12.8320   20.4460 O   0  0  0  0  0  0  0  0  0  0  0  0
    0.5500   13.4940   19.8590 S   0  0  0  0  0  0  0  0  0  0  0  0
    1.2950   14.3700   20.7210 O   0  0  0  0  0  0  0  0  0  0  0  0
    1.7530   12.2310   19.1920 C   0  0  0  0  0  0  0  0  0  0  0  0
    2.3980   11.5200   20.3800 C   0  0  0  0  0  0  0  0  0  0  0  0
    3.2760   10.4000   19.9040 C   0  0  0  0  0  0  0  0  0  0  0  0
    4.3550   10.8720   19.2330 O   0  0  0  0  0  0  0  0  0  0  0  0
    3.9080   11.6140   18.0690 C   0  0  0  0  0  0  0  0  0  0  0  0
    2.9870   12.7610   18.4530 C   0  0  0  0  0  0  0  0  0  0  0  0
    0.0300   14.2830   18.5560 N   0  0  0  0  0  0  0  0  0  0  0  0
   -0.9690   13.7790   17.5960 C   0  0  0  0  0  0  0  0  0  0  0  0
   -1.3570   14.7970   16.5310 C   0  0  0  0  0  0  0  0  0  0  0  0
   -1.8530   13.9610   15.3670 C   0  0  0  0  0  0  0  0  0  0  0  0
   -1.2750   12.5800   15.5730 C   0  0  0  0  0  0  0  0  0  0  0  0
   -0.4050   12.6640   16.8170 C   0  0  0  0  0  0  0  0  0  0  0  0
  3  2  2  0
  2  1  2  0
 10  2  1  0
 11 10  1  0
 11 15  1  0
 15 14  1  0
 14 13  1  0
 13 12  1  0
 12 11  1  0
  4  2  1  0
  4  9  1  0
  9  8  1  0
  8  7  1  0
  7  6  1  0
  6  5  1  0
  5  4  1  0
M  END
>  <smiles>  (4) 
O=S(=O)(NC1CCCC1)C1CCOCC1

>  <inchikey>  (4) 
SVSOJZPVHKCFPK-UHFFFAOYSA-N

>  <alias>  (4) 
A0473a

$$$$
A0486a
     RDKit          3D

 15 16  0  0  0  0  0  0  0  0999 V2000
   21.9990   13.3710    0.8570 O   0  0  0  0  0  0  0  0  0  0  0  0
   22.6430   13.4330    1.9050 C   0  0  0  0  0  0  0  0  0  0  0  0
   23.8540   12.8690    2.0480 N   0  0  0  0  0  0  0  0  0  0  0  0
   24.4290   13.0780    3.3320 C   0  0  0  0  0  0  0  0  0  0  0  0
   24.7310   12.0470    1.2120 C   0  0  0  0  0  0  0  0  0  0  0  0
   21.9950   13.9460    3.1830 C   0  0  0  0  0  0  0  0  0  0  0  0
   20.6290   14.3140    2.9600 N   0  0  0  0  0  0  0  0  0  0  0  0
   20.1110   15.4920    2.5410 C   0  0  0  0  0  0  0  0  0  0  0  0
   18.7210   15.3580    2.5860 C   0  0  0  0  0  0  0  0  0  0  0  0
   18.5120   14.0170    2.9950 C   0  0  0  0  0  0  0  0  0  0  0  0
   19.6490   13.4130    3.2500 N   0  0  0  0  0  0  0  0  0  0  0  0
   20.7090   16.6320    2.0800 C   0  0  0  0  0  0  0  0  0  0  0  0
   19.9270   17.6550    1.5940 C   0  0  0  0  0  0  0  0  0  0  0  0
   18.5550   17.5730    1.6680 C   0  0  0  0  0  0  0  0  0  0  0  0
   17.9290   16.4480    2.2470 C   0  0  0  0  0  0  0  0  0  0  0  0
  5  3  1  0
  4  3  1  0
  3  2  1  0
  2  1  2  0
  6  2  1  0
  7  6  1  0
  7 11  1  0
 11 10  2  0
 10  9  1  0
  9 15  2  0
 15 14  1  0
 14 13  2  0
 13 12  1  0
 12  8  2  0
  8  7  1  0
  9  8  1  0
M  END
>  <smiles>  (5) 
CN(C)C(=O)Cn1ncc2ccccc21

>  <inchikey>  (5) 
AOLISVCNSODKGB-UHFFFAOYSA-N

>  <alias>  (5) 
A0486a

$$$$
A0497a
     RDKit          3D

 11 12  0  0  0  0  0  0  0  0999 V2000
   17.4310   -5.4810   19.8690 N   0  0  0  0  0  0  0  0  0  0  0  0
   17.4950   -6.1260   18.9210 C   0  0  0  0  0  0  0  0  0  0  0  0
   17.5820   -6.8980   17.6940 C   0  0  0  0  0  0  0  0  0  0  0  0
   18.6170   -6.9110   16.6970 C   0  0  0  0  0  0  0  0  0  0  0  0
   18.1120   -7.7190   15.6630 C   0  0  0  0  0  0  0  0  0  0  0  0
   16.8860   -8.1470   16.0710 N   0  0  0  0  0  0  0  0  0  0  0  0
   16.5510   -7.6560   17.3090 N   0  0  0  0  0  0  0  0  0  0  0  0
   19.8730   -6.3290   16.5400 C   0  0  0  0  0  0  0  0  0  0  0  0
   20.5840   -6.5340   15.3630 C   0  0  0  0  0  0  0  0  0  0  0  0
   20.0610   -7.3220   14.3440 C   0  0  0  0  0  0  0  0  0  0  0  0
   18.8210   -7.9300   14.4840 C   0  0  0  0  0  0  0  0  0  0  0  0
  2  1  3  0
  3  2  1  0
  3  7  2  0
  7  6  1  0
  6  5  1  0
  5 11  2  0
 11 10  1  0
 10  9  2  0
  9  8  1  0
  8  4  2  0
  4  3  1  0
  5  4  1  0
M  END
>  <smiles>  (6) 
N#Cc1n[nH]c2ccccc12

>  <inchikey>  (6) 
REHRQXVEAXFIML-UHFFFAOYSA-N

>  <alias>  (6) 
A0497a

$$$$
A0514a
     RDKit          3D

 12 13  0  0  0  0  0  0  0  0999 V2000
    5.4930   15.0400   27.4440 N   0  0  0  0  0  0  0  0  0  0  0  0
    5.9660   13.9080   26.9080 C   0  0  0  0  0  0  0  0  0  0  0  0
    5.1190   12.3890   27.1770 S   0  0  0  0  0  0  0  0  0  0  0  0
    7.0170   13.8400   26.1330 N   0  0  0  0  0  0  0  0  0  0  0  0
    7.2110   12.5330   25.6780 C   0  0  0  0  0  0  0  0  0  0  0  0
    6.2710   11.6040   26.1400 C   0  0  0  0  0  0  0  0  0  0  0  0
    6.3300   10.2700   25.7660 C   0  0  0  0  0  0  0  0  0  0  0  0
    7.3480    9.8530   24.9290 C   0  0  0  0  0  0  0  0  0  0  0  0
    8.2300   12.1080   24.8230 C   0  0  0  0  0  0  0  0  0  0  0  0
    8.2790   10.7670   24.4520 C   0  0  0  0  0  0  0  0  0  0  0  0
    9.2540   10.4370   23.5440 O   0  0  0  0  0  0  0  0  0  0  0  0
    9.4010    9.0690   23.1500 C   0  0  0  0  0  0  0  0  0  0  0  0
 12 11  1  0
 11 10  1  0
 10  8  1  0
  8  7  2  0
  7  6  1  0
  6  3  1  0
  3  2  1  0
  2  1  1  0
  4  2  2  0
  5  4  1  0
  6  5  2  0
  9  5  1  0
 10  9  2  0
M  END
>  <smiles>  (7) 
COc1ccc2sc(N)nc2c1

>  <inchikey>  (7) 
OMIHQJBWAPWLBO-UHFFFAOYSA-N

>  <alias>  (7) 
A0514a

$$$$
A0514b
     RDKit          3D

 12 13  0  0  0  0  0  0  0  0999 V2000
   23.9030   22.4170   17.1810 N   0  0  0  0  0  0  0  0  0  0  0  0
   24.8050   21.9120   18.0230 C   0  0  0  0  0  0  0  0  0  0  0  0
   26.5040   22.3590   17.8780 S   0  0  0  0  0  0  0  0  0  0  0  0
   24.5080   21.1430   19.0370 N   0  0  0  0  0  0  0  0  0  0  0  0
   25.6450   20.8540   19.7840 C   0  0  0  0  0  0  0  0  0  0  0  0
   26.8310   21.4310   19.3110 C   0  0  0  0  0  0  0  0  0  0  0  0
   28.0400   21.2230   19.9630 C   0  0  0  0  0  0  0  0  0  0  0  0
   28.0670   20.4070   21.0780 C   0  0  0  0  0  0  0  0  0  0  0  0
   25.6800   20.0370   20.9130 C   0  0  0  0  0  0  0  0  0  0  0  0
   26.9010   19.8120   21.5370 C   0  0  0  0  0  0  0  0  0  0  0  0
   27.1260   18.9550   22.5850 O   0  0  0  0  0  0  0  0  0  0  0  0
   25.9990   18.2760   23.1490 C   0  0  0  0  0  0  0  0  0  0  0  0
 12 11  1  0
 11 10  1  0
 10  8  1  0
  8  7  2  0
  7  6  1  0
  6  3  1  0
  3  2  1  0
  2  1  1  0
  4  2  2  0
  5  4  1  0
  6  5  2  0
  9  5  1  0
 10  9  2  0
M  END
>  <smiles>  (8) 
COc1ccc2sc(N)nc2c1

>  <inchikey>  (8) 
OMIHQJBWAPWLBO-UHFFFAOYSA-N

>  <alias>  (8) 
A0514b

$$$$
A0525a
     RDKit          3D

 11 11  0  0  0  0  0  0  0  0999 V2000
    8.0530   22.3090   26.2050 O   0  0  0  0  0  0  0  0  0  0  0  0
    9.2070   22.5100   25.7780 C   0  0  0  0  0  0  0  0  0  0  0  0
    9.6880   23.7420   25.2060 C   0  0  0  0  0  0  0  0  0  0  0  0
   10.9280   23.8080   24.6560 C   0  0  0  0  0  0  0  0  0  0  0  0
   10.0940   21.4760   25.7710 N   0  0  0  0  0  0  0  0  0  0  0  0
   11.3330   21.5280   25.2100 C   0  0  0  0  0  0  0  0  0  0  0  0
   11.7720   22.6360   24.6170 C   0  0  0  0  0  0  0  0  0  0  0  0
   12.9240   22.6460   23.8550 O   0  0  0  0  0  0  0  0  0  0  0  0
   14.1400   22.7220   24.5010 C   0  0  0  0  0  0  0  0  0  0  0  0
   14.0570   23.7370   25.3690 F   0  0  0  0  0  0  0  0  0  0  0  0
   14.3840   21.5620   25.1910 F   0  0  0  0  0  0  0  0  0  0  0  0
 10  9  1  0
 11  9  1  0
  9  8  1  0
  8  7  1  0
  7  4  1  0
  4  3  2  0
  3  2  1  0
  2  1  2  0
  5  2  1  0
  6  5  1  0
  7  6  2  0
M  END
>  <smiles>  (9) 
O=c1ccc(OC(F)F)c[nH]1

>  <inchikey>  (9) 
VRWFXRMPZMWPKH-UHFFFAOYSA-N

>  <alias>  (9) 
A0525a

$$$$
A0528a
     RDKit          3D

 15 16  0  0  0  0  0  0  0  0999 V2000
   10.0980   16.1610   21.7630 O   0  0  0  0  0  0  0  0  0  0  0  0
   11.0240   15.4160   22.0390 C   0  0  0  0  0  0  0  0  0  0  0  0
   12.3220   15.7020   21.9000 N   0  0  0  0  0  0  0  0  0  0  0  0
   12.8350   16.7130   20.9870 C   0  0  0  0  0  0  0  0  0  0  0  0
   10.9280   13.9920   22.5750 C   0  0  1  0  0  0  0  0  0  0  0  0
   12.3590   13.6760   23.0450 C   0  0  0  0  0  0  0  0  0  0  0  0
   13.2070   14.8990   22.7210 C   0  0  0  0  0  0  0  0  0  0  0  0
   10.0050   13.9260   23.6780 O   0  0  0  0  0  0  0  0  0  0  0  0
    9.4550   12.7040   24.0210 C   0  0  0  0  0  0  0  0  0  0  0  0
    9.8850   11.5010   23.4740 C   0  0  0  0  0  0  0  0  0  0  0  0
    9.2570   10.3550   23.8970 C   0  0  0  0  0  0  0  0  0  0  0  0
    9.7030    9.1680   23.4060 F   0  0  0  0  0  0  0  0  0  0  0  0
    8.2400   10.3420   24.8120 C   0  0  0  0  0  0  0  0  0  0  0  0
    7.8230   11.5520   25.3410 C   0  0  0  0  0  0  0  0  0  0  0  0
    8.4270   12.7370   24.9500 C   0  0  0  0  0  0  0  0  0  0  0  0
  4  3  1  0
  3  7  1  0
  7  6  1  0
  6  5  1  0
  5  8  1  1
  9  8  1  0
  9 15  2  0
 15 14  1  0
 14 13  2  0
 13 11  1  0
 12 11  1  0
 11 10  2  0
 10  9  1  0
  5  2  1  0
  3  2  1  0
  2  1  2  0
M  END
>  <smiles>  (10) 
CN1CC[C@@H](Oc2cccc(F)c2)C1=O

>  <inchikey>  (10) 
JWLJWMCLUCDWSD-SNVBAGLBSA-N

>  <alias>  (10) 
A0528a

$$$$
A0528b
     RDKit          3D

 15 16  0  0  0  0  0  0  0  0999 V2000
   27.5430   19.5880   22.4250 O   0  0  0  0  0  0  0  0  0  0  0  0
   27.0550   20.0800   21.4300 C   0  0  0  0  0  0  0  0  0  0  0  0
   25.7600   20.3530   21.2480 N   0  0  0  0  0  0  0  0  0  0  0  0
   24.6800   19.6730   21.9560 C   0  0  0  0  0  0  0  0  0  0  0  0
   27.7760   20.5100   20.1670 C   0  0  1  0  0  0  0  0  0  0  0  0
   26.9170   21.6720   19.6940 C   0  0  0  0  0  0  0  0  0  0  0  0
   25.5220   21.3830   20.2460 C   0  0  0  0  0  0  0  0  0  0  0  0
   29.1240   20.8400   20.5190 O   0  0  0  0  0  0  0  0  0  0  0  0
   29.8980   21.5630   19.6380 C   0  0  0  0  0  0  0  0  0  0  0  0
   30.6430   20.9020   18.6740 C   0  0  0  0  0  0  0  0  0  0  0  0
   31.5150   21.6580   17.9290 C   0  0  0  0  0  0  0  0  0  0  0  0
   32.3140   21.0180   17.0480 F   0  0  0  0  0  0  0  0  0  0  0  0
   31.6560   23.0100   18.0630 C   0  0  0  0  0  0  0  0  0  0  0  0
   30.8880   23.6510   19.0180 C   0  0  0  0  0  0  0  0  0  0  0  0
   30.0040   22.9360   19.8050 C   0  0  0  0  0  0  0  0  0  0  0  0
  4  3  1  0
  3  7  1  0
  7  6  1  0
  6  5  1  0
  5  8  1  1
  9  8  1  0
  9 15  2  0
 15 14  1  0
 14 13  2  0
 13 11  1  0
 12 11  1  0
 11 10  2  0
 10  9  1  0
  5  2  1  0
  3  2  1  0
  2  1  2  0
M  END
>  <smiles>  (11) 
CN1CC[C@@H](Oc2cccc(F)c2)C1=O

>  <inchikey>  (11) 
JWLJWMCLUCDWSD-SNVBAGLBSA-N

>  <alias>  (11) 
A0528b

$$$$
A0541a
     RDKit          3D

 15 15  0  0  0  0  0  0  0  0999 V2000
    5.2340   15.1010    2.0220 O   0  0  0  0  0  0  0  0  0  0  0  0
    5.6510   14.0460    1.7260 C   0  0  0  0  0  0  0  0  0  0  0  0
    4.8660   13.0010    1.7620 N   0  0  0  0  0  0  0  0  0  0  0  0
    3.9370   12.9800    2.8810 C   0  0  0  0  0  0  0  0  0  0  0  0
    4.7260   12.0160    0.7310 C   0  0  0  0  0  0  0  0  0  0  0  0
    7.0950   13.8830    1.3660 C   0  0  2  0  0  0  0  0  0  0  0  0
    7.5020   12.4710    0.9310 C   0  0  0  0  0  0  0  0  0  0  0  0
    7.8720   14.3380    2.5330 C   0  0  0  0  0  0  0  0  0  0  0  0
    7.3560   13.7240    3.7760 C   0  0  0  0  0  0  0  0  0  0  0  0
    7.4480   12.4240    4.1520 C   0  0  0  0  0  0  0  0  0  0  0  0
    7.5570   11.1320    3.4460 C   0  0  0  0  0  0  0  0  0  0  0  0
    7.4230   12.3500    5.3620 O   0  0  0  0  0  0  0  0  0  0  0  0
    7.1910   13.5980    5.8890 N   0  0  0  0  0  0  0  0  0  0  0  0
    7.1480   14.4240    4.9040 C   0  0  0  0  0  0  0  0  0  0  0  0
    7.0280   15.9050    5.0700 C   0  0  0  0  0  0  0  0  0  0  0  0
  6  7  1  1
  8  6  1  0
  9  8  1  0
  9 14  1  0
 15 14  1  0
 14 13  2  0
 13 12  1  0
 12 10  1  0
 10  9  2  0
 11 10  1  0
  6  2  1  0
  2  1  2  0
  3  2  1  0
  5  3  1  0
  4  3  1  0
M  END
>  <smiles>  (12) 
Cc1noc(C)c1C[C@@H](C)C(=O)N(C)C

>  <inchikey>  (12) 
NIHQHFJWDDQIMY-SSDOTTSWSA-N

>  <alias>  (12) 
A0541a

$$$$
A0556a
     RDKit          3D

 14 15  0  0  0  0  0  0  0  0999 V2000
    5.5240   11.7430   26.3370 O   0  0  0  0  0  0  0  0  0  0  0  0
    6.1730   10.7380   26.2980 C   0  0  0  0  0  0  0  0  0  0  0  0
    7.2770   10.6190   25.3570 C   0  0  0  0  0  0  0  0  0  0  0  0
    7.7920   11.6780   24.8170 C   0  0  0  0  0  0  0  0  0  0  0  0
    7.3650   12.8900   25.1850 N   0  0  0  0  0  0  0  0  0  0  0  0
    8.7680   11.2510   23.9760 C   0  0  0  0  0  0  0  0  0  0  0  0
    7.8530    9.4780   24.9550 N   0  0  0  0  0  0  0  0  0  0  0  0
    8.7760    9.9200   24.0870 N   0  0  0  0  0  0  0  0  0  0  0  0
    9.6770    8.9740   23.4490 C   0  0  0  0  0  0  0  0  0  0  0  0
    6.0130    9.7270   27.1510 N   0  0  0  0  0  0  0  0  0  0  0  0
    4.7960    9.6060   27.9500 C   0  0  0  0  0  0  0  0  0  0  0  0
    3.4950    9.1580   27.2110 C   0  0  0  0  0  0  0  0  0  0  0  0
    3.1750    8.5750   28.5780 C   0  0  0  0  0  0  0  0  0  0  0  0
    4.6670    8.4600   28.7970 C   0  0  0  0  0  0  0  0  0  0  0  0
  9  8  1  0
  8  6  1  0
  6  4  2  0
  5  4  1  0
  4  3  1  0
  7  3  2  0
  8  7  1  0
  3  2  1  0
  2  1  2  0
 10  2  1  0
 11 10  1  0
 11 14  1  0
 14 13  1  0
 13 12  1  0
 12 11  1  0
M  END
>  <smiles>  (13) 
Cn1cc(N)c(C(=O)NC2CCC2)n1

>  <inchikey>  (13) 
NILOPFIVQCAHIP-UHFFFAOYSA-N

>  <alias>  (13) 
A0556a

$$$$
A0586a
     RDKit          3D

 15 16  0  0  0  0  0  0  0  0999 V2000
    6.7220   14.2200    6.5410 O   0  0  0  0  0  0  0  0  0  0  0  0
    6.8560   14.7880    5.2310 S   0  0  0  0  0  0  0  0  0  0  0  0
    7.7560   15.8870    5.0410 O   0  0  0  0  0  0  0  0  0  0  0  0
    5.4010   15.2910    4.7790 N   0  0  0  0  0  0  0  0  0  0  0  0
    7.3690   13.4940    4.1470 C   0  0  0  0  0  0  0  0  0  0  0  0
    7.2140   12.1700    4.5230 C   0  0  0  0  0  0  0  0  0  0  0  0
    7.5290   11.1710    3.6190 C   0  0  0  0  0  0  0  0  0  0  0  0
    7.8610   13.8270    2.8940 C   0  0  0  0  0  0  0  0  0  0  0  0
    8.1770   12.8160    1.9930 C   0  0  0  0  0  0  0  0  0  0  0  0
    8.6270   13.1670    0.7440 N   0  0  0  0  0  0  0  0  0  0  0  0
    9.9440   13.7810    0.6140 C   0  0  0  0  0  0  0  0  0  0  0  0
    8.0090   11.4730    2.3470 C   0  0  0  0  0  0  0  0  0  0  0  0
    8.3460   10.3870    1.3540 C   0  0  0  0  0  0  0  0  0  0  0  0
    8.5240   10.8530   -0.0970 C   0  0  0  0  0  0  0  0  0  0  0  0
    8.2120   12.3160   -0.3620 C   0  0  0  0  0  0  0  0  0  0  0  0
 11 10  1  0
 10 15  1  0
 15 14  1  0
 14 13  1  0
 13 12  1  0
 12  7  2  0
  7  6  1  0
  6  5  2  0
  8  5  1  0
  9  8  2  0
 10  9  1  0
 12  9  1  0
  5  2  1  0
  3  2  2  0
  2  1  2  0
  4  2  1  0
M  END
>  <smiles>  (14) 
CN1CCCc2ccc(S(N)(=O)=O)cc21

>  <inchikey>  (14) 
OUJFDUTZTPBMDN-UHFFFAOYSA-N

>  <alias>  (14) 
A0586a

$$$$
A0309a
     RDKit          3D

 15 17  0  0  0  0  0  0  0  0999 V2000
   24.6680   16.7850    1.7360 C   0  0  0  0  0  0  0  0  0  0  0  0
   23.3230   16.2370    1.8190 N   0  0  0  0  0  0  0  0  0  0  0  0
   22.9290   14.9340    1.8640 C   0  0  0  0  0  0  0  0  0  0  0  0
   21.6130   14.8280    1.8480 N   0  0  0  0  0  0  0  0  0  0  0  0
   21.1500   16.1140    1.8600 C   0  0  0  0  0  0  0  0  0  0  0  0
   22.1780   16.9890    1.8530 C   0  0  0  0  0  0  0  0  0  0  0  0
   23.8240   13.8060    2.0540 C   0  0  0  0  0  0  0  0  0  0  0  0
   25.1790   13.8960    2.0470 N   0  0  0  0  0  0  0  0  0  0  0  0
   25.5410   12.6610    2.0590 C   0  0  0  0  0  0  0  0  0  0  0  0
   24.5110   11.8170    2.1620 O   0  0  0  0  0  0  0  0  0  0  0  0
   23.3570   12.6030    2.1470 N   0  0  0  0  0  0  0  0  0  0  0  0
   26.8570   12.0750    1.7440 C   0  0  0  0  0  0  0  0  0  0  0  0
   26.7380   10.5820    1.4640 C   0  0  0  0  0  0  0  0  0  0  0  0
   28.1000   10.4270    1.9070 C   0  0  0  0  0  0  0  0  0  0  0  0
   27.8130   11.5600    2.8010 C   0  0  0  0  0  0  0  0  0  0  0  0
  2  1  1  0
  2  6  1  0
  6  5  2  0
  5  4  1  0
  4  3  2  0
  3  2  1  0
  7  3  1  0
  7 11  2  0
 11 10  1  0
 10  9  1  0
  9  8  2  0
  8  7  1  0
 12  9  1  0
 12 15  1  0
 15 14  1  0
 14 13  1  0
 13 12  1  0
M  END
>  <smiles>  (15) 
Cn1ccnc1-c1noc(C2CCC2)n1

>  <inchikey>  (15) 
OPUWQKONOBGDBJ-UHFFFAOYSA-N

>  <alias>  (15) 
A0309a

$$$$
A0310a
     RDKit          3D

 14 14  0  0  0  0  0  0  0  0999 V2000
   12.5790   15.9990   23.1660 N   0  0  0  0  0  0  0  0  0  0  0  0
   12.4570   14.9080   22.8710 C   0  0  0  0  0  0  0  0  0  0  0  0
   12.2040   13.5210   22.4900 C   0  0  0  0  0  0  0  0  0  0  0  0
   11.1410   12.9070   23.3800 C   0  0  0  0  0  0  0  0  0  0  0  0
   10.9590   13.2970   24.5190 O   0  0  0  0  0  0  0  0  0  0  0  0
   10.3850   11.9330   22.8190 N   0  0  0  0  0  0  0  0  0  0  0  0
    9.3930   11.2520   23.5150 C   0  0  0  0  0  0  0  0  0  0  0  0
    9.2380    9.8470   23.4690 C   0  0  0  0  0  0  0  0  0  0  0  0
   10.0440    8.8130   22.7540 C   0  0  0  0  0  0  0  0  0  0  0  0
    8.4130   11.7340   24.3270 C   0  0  0  0  0  0  0  0  0  0  0  0
    8.0890   13.1380   24.7140 C   0  0  0  0  0  0  0  0  0  0  0  0
    7.7320   10.6670   24.7440 N   0  0  0  0  0  0  0  0  0  0  0  0
    8.2100    9.5020   24.2230 N   0  0  0  0  0  0  0  0  0  0  0  0
    6.6430   10.6180   25.7080 C   0  0  0  0  0  0  0  0  0  0  0  0
  9  8  1  0
  8 13  2  0
 13 12  1  0
 14 12  1  0
 12 10  1  0
 11 10  1  0
 10  7  2  0
  8  7  1  0
  7  6  1  0
  6  4  1  0
  5  4  2  0
  4  3  1  0
  3  2  1  0
  2  1  3  0
M  END
>  <smiles>  (16) 
Cc1nn(C)c(C)c1NC(=O)CC#N

>  <inchikey>  (16) 
GCDMTIQQHYQVGI-UHFFFAOYSA-N

>  <alias>  (16) 
A0310a

$$$$
A0608a
     RDKit          3D

 17 18  0  0  0  0  0  0  0  0999 V2000
   21.4860   11.7020    2.6450 O   0  0  0  0  0  0  0  0  0  0  0  0
   21.0130   12.7770    2.3220 C   0  0  0  0  0  0  0  0  0  0  0  0
   19.6280   13.1720    2.7820 C   0  0  0  0  0  0  0  0  0  0  0  0
   18.2910   13.0520    2.0900 C   0  0  0  0  0  0  0  0  0  0  0  0
   17.2910   13.9380    2.3960 C   0  0  0  0  0  0  0  0  0  0  0  0
   16.0320   13.8040    1.8680 C   0  0  0  0  0  0  0  0  0  0  0  0
   17.9890   12.0050    1.2430 C   0  0  0  0  0  0  0  0  0  0  0  0
   16.7300   11.8770    0.6920 C   0  0  0  0  0  0  0  0  0  0  0  0
   15.7170   12.7660    1.0130 C   0  0  0  0  0  0  0  0  0  0  0  0
   14.2920   12.5460    0.5520 C   0  0  0  0  0  0  0  0  0  0  0  0
   21.6830   13.7040    1.6400 N   0  0  0  0  0  0  0  0  0  0  0  0
   23.0870   14.0880    1.8710 C   0  0  0  0  0  0  0  0  0  0  0  0
   23.1830   15.5420    2.2590 C   0  0  1  0  0  0  0  0  0  0  0  0
   24.3180   16.1880    1.6670 O   0  0  0  0  0  0  0  0  0  0  0  0
   23.9450   17.4500    1.1550 C   0  0  0  0  0  0  0  0  0  0  0  0
   22.5190   17.7030    1.6180 C   0  0  0  0  0  0  0  0  0  0  0  0
   22.0170   16.3390    1.8540 C   0  0  0  0  0  0  0  0  0  0  0  0
 10  9  1  0
  9  6  1  0
  6  5  2  0
  5  4  1  0
  4  3  1  0
  3  2  1  0
  2  1  2  0
 11  2  1  0
 12 11  1  0
 13 12  1  6
 13 17  1  0
 17 16  1  0
 16 15  1  0
 15 14  1  0
 14 13  1  0
  7  4  2  0
  8  7  1  0
  9  8  2  0
M  END
>  <smiles>  (17) 
Cc1ccc(CC(=O)NC[C@@H]2CCCO2)cc1

>  <inchikey>  (17) 
GNNODMPIMQHVQL-ZDUSSCGKSA-N

>  <alias>  (17) 
A0608a

$$$$
A0202a
     RDKit          3D

 13 14  0  0  0  0  0  0  0  0999 V2000
   17.6570   -2.9850   19.5570 O   0  0  0  0  0  0  0  0  0  0  0  0
   17.9410   -1.6700   20.2190 S   0  0  0  0  0  0  0  0  0  0  0  0
   19.2010   -1.1100   19.5960 O   0  0  0  0  0  0  0  0  0  0  0  0
   16.6170   -0.5940   19.9510 N   0  0  0  0  0  0  0  0  0  0  0  0
   18.2720   -1.8890   21.9180 C   0  0  0  0  0  0  0  0  0  0  0  0
   18.6090   -0.9110   22.7690 N   0  0  0  0  0  0  0  0  0  0  0  0
   18.7800   -1.4780   23.9690 C   0  0  0  0  0  0  0  0  0  0  0  0
   18.5490   -2.7970   23.8580 N   0  0  0  0  0  0  0  0  0  0  0  0
   18.2300   -3.0840   22.5860 C   0  0  0  0  0  0  0  0  0  0  0  0
   18.7790    0.4160   22.5960 N   0  0  0  0  0  0  0  0  0  0  0  0
   19.1250    1.2410   23.5980 C   0  0  0  0  0  0  0  0  0  0  0  0
   19.3110    0.7030   24.8530 C   0  0  0  0  0  0  0  0  0  0  0  0
   19.1380   -0.6510   25.0310 C   0  0  0  0  0  0  0  0  0  0  0  0
  4  2  1  0
  3  2  2  0
  2  1  2  0
  5  2  1  0
  5  9  2  0
  9  8  1  0
  8  7  2  0
  7 13  1  0
 13 12  2  0
 12 11  1  0
 11 10  2  0
 10  6  1  0
  6  5  1  0
  7  6  1  0
M  END
>  <smiles>  (18) 
NS(=O)(=O)c1cnc2cccnn12

>  <inchikey>  (18) 
BZFKHPWXOXGGCH-UHFFFAOYSA-N

>  <alias>  (18) 
A0202a

$$$$
A0239a
     RDKit          3D

 15 16  0  0  0  0  0  0  0  0999 V2000
   19.9820   12.9770    2.5010 O   0  0  0  0  0  0  0  0  0  0  0  0
   19.9430   14.1570    2.5430 C   0  0  0  0  0  0  0  0  0  0  0  0
   18.6710   14.9180    2.2660 C   0  0  0  0  0  0  0  0  0  0  0  0
   18.6490   16.2620    2.6300 C   0  0  0  0  0  0  0  0  0  0  0  0
   21.0600   14.8590    2.7900 N   0  0  0  0  0  0  0  0  0  0  0  0
   22.2450   14.0810    3.0890 C   0  0  0  0  0  0  0  0  0  0  0  0
   22.8280   13.6390    1.7860 C   0  0  0  0  0  0  0  0  0  0  0  0
   23.8810   12.8320    1.5920 N   0  0  0  0  0  0  0  0  0  0  0  0
   23.8770   12.5710    0.3060 C   0  0  0  0  0  0  0  0  0  0  0  0
   22.9640   13.2240   -0.3220 N   0  0  0  0  0  0  0  0  0  0  0  0
   22.3030   13.9500    0.6200 N   0  0  0  0  0  0  0  0  0  0  0  0
   25.0100   12.4710    2.4390 C   0  0  0  0  0  0  0  0  0  0  0  0
   26.0680   11.7520    1.6890 C   0  0  0  0  0  0  0  0  0  0  0  0
   26.0620   12.1600    0.2840 C   0  0  0  0  0  0  0  0  0  0  0  0
   24.8560   11.6260   -0.2460 C   0  0  0  0  0  0  0  0  0  0  0  0
  4  3  1  0
  3  2  1  0
  2  1  2  0
  5  2  1  0
  6  5  1  0
  7  6  1  0
  7 11  2  0
 11 10  1  0
 10  9  2  0
  9 15  1  0
 15 14  1  0
 14 13  1  0
 13 12  1  0
 12  8  1  0
  8  7  1  0
  9  8  1  0
M  END
>  <smiles>  (19) 
CCC(=O)NCc1nnc2n1CCCC2

>  <inchikey>  (19) 
IOOTXFHTMOUUHM-UHFFFAOYSA-N

>  <alias>  (19) 
A0239a

$$$$
A0341a
     RDKit          3D

 13 14  0  0  0  0  0  0  0  0999 V2000
   16.4100   -4.4650   21.4330 O   0  0  0  0  0  0  0  0  0  0  0  0
   17.2190   -3.9090   20.6390 C   0  0  0  0  0  0  0  0  0  0  0  0
   18.4560   -3.1400   20.9260 C   0  0  0  0  0  0  0  0  0  0  0  0
   18.9180   -2.7710   19.5660 C   0  0  0  0  0  0  0  0  0  0  0  0
   20.1560   -1.9740   19.3110 C   0  0  0  0  0  0  0  0  0  0  0  0
   17.0540   -3.9350   19.2240 N   0  0  0  0  0  0  0  0  0  0  0  0
   18.1180   -3.2280   18.6560 N   0  0  0  0  0  0  0  0  0  0  0  0
   15.9850   -4.5720   18.5340 C   0  0  0  0  0  0  0  0  0  0  0  0
   14.9970   -3.8220   17.9100 C   0  0  0  0  0  0  0  0  0  0  0  0
   13.9420   -4.3930   17.2340 C   0  0  0  0  0  0  0  0  0  0  0  0
   13.8540   -5.7700   17.1680 C   0  0  0  0  0  0  0  0  0  0  0  0
   14.8310   -6.5260   17.7870 C   0  0  0  0  0  0  0  0  0  0  0  0
   15.8930   -5.9430   18.4660 C   0  0  0  0  0  0  0  0  0  0  0  0
  5  4  1  0
  4  7  2  0
  7  6  1  0
  6  2  1  0
  2  1  2  0
  3  2  1  0
  4  3  1  0
  8  6  1  0
  8 13  2  0
 13 12  1  0
 12 11  2  0
 11 10  1  0
 10  9  2  0
  9  8  1  0
M  END
>  <smiles>  (20) 
CC1=NN(c2ccccc2)C(=O)C1

>  <inchikey>  (20) 
QELUYTUMUWHWMC-UHFFFAOYSA-N

>  <alias>  (20) 
A0341a

$$$$
A0351b
     RDKit          3D

 16 17  0  0  0  0  0  0  0  0999 V2000
   24.8980   18.4910   25.7100 O   0  0  0  0  0  0  0  0  0  0  0  0
   24.6300   17.2940   24.9680 S   0  0  0  0  0  0  0  0  0  0  0  0
   25.5120   16.1710   25.1030 O   0  0  0  0  0  0  0  0  0  0  0  0
   22.9750   16.7730   25.3650 C   0  0  0  0  0  0  0  0  0  0  0  0
   22.3380   15.9770   24.2520 C   0  0  0  0  0  0  0  0  0  0  0  0
   24.6410   17.7100   23.3820 N   0  0  0  0  0  0  0  0  0  0  0  0
   23.8950   18.8770   22.8910 C   0  0  0  0  0  0  0  0  0  0  0  0
   24.7560   19.9220   22.2230 C   0  0  0  0  0  0  0  0  0  0  0  0
   25.7740   19.5640   21.3380 C   0  0  0  0  0  0  0  0  0  0  0  0
   26.4910   20.5630   20.7140 C   0  0  0  0  0  0  0  0  0  0  0  0
   27.4860   20.4510   19.7660 O   0  0  0  0  0  0  0  0  0  0  0  0
   27.6570   21.7720   19.2580 C   0  0  0  0  0  0  0  0  0  0  0  0
   27.0690   22.6680   20.1970 O   0  0  0  0  0  0  0  0  0  0  0  0
   26.2380   21.8830   20.9630 C   0  0  0  0  0  0  0  0  0  0  0  0
   25.2550   22.2670   21.8480 C   0  0  0  0  0  0  0  0  0  0  0  0
   24.5130   21.2740   22.4650 C   0  0  0  0  0  0  0  0  0  0  0  0
  5  4  1  0
  4  2  1  0
  3  2  2  0
  2  1  2  0
  6  2  1  0
  7  6  1  0
  8  7  1  0
  8 16  2  0
 16 15  1  0
 15 14  2  0
 14 13  1  0
 13 12  1  0
 12 11  1  0
 11 10  1  0
 14 10  1  0
 10  9  2  0
  9  8  1  0
M  END
>  <smiles>  (21) 
CCS(=O)(=O)NCc1ccc2c(c1)OCO2

>  <inchikey>  (21) 
UKPLBUIFSDRLEZ-UHFFFAOYSA-N

>  <alias>  (21) 
A0351b

$$$$
A0354a
     RDKit          3D

 14 15  0  0  0  0  0  0  0  0999 V2000
    2.9350   13.2850    2.5670 O   0  0  0  0  0  0  0  0  0  0  0  0
    3.3350   14.4230    2.4720 C   0  0  0  0  0  0  0  0  0  0  0  0
    2.3590   15.6440    2.6040 C   0  0  0  0  0  0  0  0  0  0  0  0
    2.8470   17.0120    2.1390 C   0  0  0  0  0  0  0  0  0  0  0  0
    2.7050   16.7420    3.6050 C   0  0  0  0  0  0  0  0  0  0  0  0
    4.6090   14.6790    2.2320 N   0  0  0  0  0  0  0  0  0  0  0  0
    5.7550   13.9380    2.7640 C   0  0  2  0  0  0  0  0  0  0  0  0
    6.4140   13.1850    1.6210 C   0  0  0  0  0  0  0  0  0  0  0  0
    5.5450   13.0160    3.9760 C   0  0  0  0  0  0  0  0  0  0  0  0
    7.0190   13.2160    4.9150 S   0  0  0  0  0  0  0  0  0  0  0  0
    6.6370   13.9090    6.0770 O   0  0  0  0  0  0  0  0  0  0  0  0
    7.7890   12.0310    4.9850 O   0  0  0  0  0  0  0  0  0  0  0  0
    7.7370   14.2650    3.9210 C   0  0  0  0  0  0  0  0  0  0  0  0
    6.6210   15.0640    3.2590 C   0  0  0  0  0  0  0  0  0  0  0  0
  7  8  1  6
  7 14  1  0
 14 13  1  0
 13 10  1  0
 11 10  2  0
 12 10  2  0
 10  9  1  0
  9  7  1  0
  7  6  1  0
  6  2  1  0
  2  1  2  0
  3  2  1  0
  3  5  1  0
  5  4  1  0
  4  3  1  0
M  END
>  <smiles>  (22) 
C[C@]1(NC(=O)C2CC2)CCS(=O)(=O)C1

>  <inchikey>  (22) 
LMUYJJAKMZKBHS-VIFPVBQESA-N

>  <alias>  (22) 
A0354a

$$$$
A0395a
     RDKit          3D

 16 16  0  0  0  0  0  0  0  0999 V2000
   10.3390   -9.3160   10.5310 O   0  0  0  0  0  0  0  0  0  0  0  0
    9.9570   -8.4670   11.3340 C   0  0  0  0  0  0  0  0  0  0  0  0
    8.7380   -7.8660   11.2650 N   0  0  0  0  0  0  0  0  0  0  0  0
    7.7040   -8.0860   10.2360 C   0  0  0  0  0  0  0  0  0  0  0  0
    8.1500   -9.0330    9.1250 C   0  0  0  0  0  0  0  0  0  0  0  0
    9.0050   -8.3210    8.2410 O   0  0  0  0  0  0  0  0  0  0  0  0
    7.3850   -6.7350    9.6090 C   0  0  0  0  0  0  0  0  0  0  0  0
    7.3190   -6.7580    8.1890 O   0  0  0  0  0  0  0  0  0  0  0  0
    6.4510   -8.6190   10.9170 C   0  0  0  0  0  0  0  0  0  0  0  0
   10.7080   -8.0740   12.4090 N   0  0  0  0  0  0  0  0  0  0  0  0
   12.0190   -8.5010   12.7380 C   0  0  0  0  0  0  0  0  0  0  0  0
   12.6950   -7.8140   13.7400 C   0  0  0  0  0  0  0  0  0  0  0  0
   14.0130   -8.1240   14.0240 C   0  0  0  0  0  0  0  0  0  0  0  0
   14.6630   -9.1190   13.3250 C   0  0  0  0  0  0  0  0  0  0  0  0
   13.9920   -9.8210   12.3480 C   0  0  0  0  0  0  0  0  0  0  0  0
   12.6730   -9.5210   12.0510 C   0  0  0  0  0  0  0  0  0  0  0  0
  9  4  1  0
  5  4  1  0
  6  5  1  0
  7  4  1  0
  8  7  1  0
  4  3  1  0
  3  2  1  0
  2  1  2  0
 10  2  1  0
 11 10  1  0
 11 16  2  0
 16 15  1  0
 15 14  2  0
 14 13  1  0
 13 12  2  0
 12 11  1  0
M  END
>  <smiles>  (23) 
CC(CO)(CO)NC(=O)Nc1ccccc1

>  <inchikey>  (23) 
NLGYHTMGWVQQIL-UHFFFAOYSA-N

>  <alias>  (23) 
A0395a

$$$$
A0428a
     RDKit          3D

 12 12  0  0  0  0  0  0  0  0999 V2000
    7.2460   11.8440    5.2740 O   0  0  0  0  0  0  0  0  0  0  0  0
    7.0290   13.1910    4.9030 S   0  0  0  0  0  0  0  0  0  0  0  0
    7.1570   14.2170    5.8560 O   0  0  0  0  0  0  0  0  0  0  0  0
    5.5130   13.3010    4.3430 N   0  0  0  0  0  0  0  0  0  0  0  0
    5.0740   12.3030    3.3700 C   0  0  0  0  0  0  0  0  0  0  0  0
    4.9220   14.6330    4.2350 C   0  0  0  0  0  0  0  0  0  0  0  0
    8.0330   13.5250    3.5100 C   0  0  0  0  0  0  0  0  0  0  0  0
    8.5390   14.7840    3.2900 C   0  0  0  0  0  0  0  0  0  0  0  0
    9.3200   15.0760    2.2480 N   0  0  0  0  0  0  0  0  0  0  0  0
    9.5970   14.0980    1.3940 C   0  0  0  0  0  0  0  0  0  0  0  0
    9.1220   12.8200    1.5230 C   0  0  0  0  0  0  0  0  0  0  0  0
    8.3220   12.5200    2.6100 C   0  0  0  0  0  0  0  0  0  0  0  0
  6  4  1  0
  5  4  1  0
  4  2  1  0
  3  2  2  0
  2  1  2  0
  7  2  1  0
  7 12  2  0
 12 11  1  0
 11 10  2  0
 10  9  1  0
  9  8  2  0
  8  7  1  0
M  END
>  <smiles>  (24) 
CN(C)S(=O)(=O)c1cccnc1

>  <inchikey>  (24) 
HGZULNNLLFYOFI-UHFFFAOYSA-N

>  <alias>  (24) 
A0428a

$$$$
A0717a
     RDKit          3D

 13 13  0  0  0  0  0  0  0  0999 V2000
    7.4370   14.3150    5.5920 O   0  0  0  0  0  0  0  0  0  0  0  0
    7.2250   13.2190    4.7010 S   0  0  0  0  0  0  0  0  0  0  0  0
    7.3320   11.8750    5.1780 O   0  0  0  0  0  0  0  0  0  0  0  0
    5.7310   13.3890    4.0750 N   0  0  0  0  0  0  0  0  0  0  0  0
    4.7540   14.1490    4.8590 C   0  0  0  0  0  0  0  0  0  0  0  0
    5.1870   12.2470    3.3300 C   0  0  0  0  0  0  0  0  0  0  0  0
    8.2490   13.4090    3.2760 C   0  0  0  0  0  0  0  0  0  0  0  0
    8.7310   14.5930    2.8010 C   0  0  0  0  0  0  0  0  0  0  0  0
    8.4820   15.9900    3.2660 C   0  0  0  0  0  0  0  0  0  0  0  0
    9.5080   14.3130    1.7440 N   0  0  0  0  0  0  0  0  0  0  0  0
    9.5470   12.9850    1.4850 N   0  0  0  0  0  0  0  0  0  0  0  0
    8.7780   12.4180    2.4200 C   0  0  0  0  0  0  0  0  0  0  0  0
    8.6010   10.9360    2.4580 C   0  0  0  0  0  0  0  0  0  0  0  0
  6  4  1  0
  5  4  1  0
  4  2  1  0
  3  2  2  0
  2  1  2  0
  7  2  1  0
  7 12  1  0
 13 12  1  0
 12 11  2  0
 11 10  1  0
 10  8  1  0
  8  7  2  0
  9  8  1  0
M  END
>  <smiles>  (25) 
Cc1n[nH]c(C)c1S(=O)(=O)N(C)C

>  <inchikey>  (25) 
YJCZGTAEFYFJRJ-UHFFFAOYSA-N

>  <alias>  (25) 
A0717a

$$$$
A0719a
     RDKit          3D

 13 13  0  0  0  0  0  0  0  0999 V2000
    7.2410   13.3110   21.9860 O   0  0  0  0  0  0  0  0  0  0  0  0
    7.2630   14.6970   22.3250 S   0  0  0  0  0  0  0  0  0  0  0  0
    8.4090   15.4940   22.0280 O   0  0  0  0  0  0  0  0  0  0  0  0
    5.9630   15.4080   21.7150 N   0  0  0  0  0  0  0  0  0  0  0  0
    6.8920   14.8260   24.0550 C   0  0  0  0  0  0  0  0  0  0  0  0
    7.9420   14.2430   25.0170 C   0  0  1  0  0  0  0  0  0  0  0  0
    7.4570   14.4430   26.4510 C   0  0  0  0  0  0  0  0  0  0  0  0
    8.3290   12.7940   24.7380 C   0  0  0  0  0  0  0  0  0  0  0  0
    9.4190   12.4930   23.9310 C   0  0  0  0  0  0  0  0  0  0  0  0
    9.7520   11.1760   23.6460 C   0  0  0  0  0  0  0  0  0  0  0  0
    9.0220   10.1430   24.1960 C   0  0  0  0  0  0  0  0  0  0  0  0
    7.9490   10.4300   25.0120 C   0  0  0  0  0  0  0  0  0  0  0  0
    7.5960   11.7420   25.2670 C   0  0  0  0  0  0  0  0  0  0  0  0
  6  7  1  1
  6  5  1  0
  5  2  1  0
  3  2  2  0
  2  1  2  0
  4  2  1  0
  8  6  1  0
  8 13  2  0
 13 12  1  0
 12 11  2  0
 11 10  1  0
 10  9  2  0
  9  8  1  0
M  END
>  <smiles>  (26) 
C[C@H](CS(N)(=O)=O)c1ccccc1

>  <inchikey>  (26) 
HXLOQIXEAPZOSG-MRVPVSSYSA-N

>  <alias>  (26) 
A0719a

$$$$
A0719b
     RDKit          3D

 13 13  0  0  0  0  0  0  0  0999 V2000
   30.8410   21.2070   18.9500 O   0  0  0  0  0  0  0  0  0  0  0  0
   30.7420   22.3520   19.8030 S   0  0  0  0  0  0  0  0  0  0  0  0
   31.1650   23.6310   19.3300 O   0  0  0  0  0  0  0  0  0  0  0  0
   31.5440   22.0290   21.1570 N   0  0  0  0  0  0  0  0  0  0  0  0
   29.0600   22.4980   20.3890 C   0  0  0  0  0  0  0  0  0  0  0  0
   28.0690   21.3910   19.9860 C   0  0  1  0  0  0  0  0  0  0  0  0
   28.8230   20.1060   19.7090 C   0  0  0  0  0  0  0  0  0  0  0  0
   26.9100   21.1550   20.9510 C   0  0  0  0  0  0  0  0  0  0  0  0
   26.5150   22.1300   21.8550 C   0  0  0  0  0  0  0  0  0  0  0  0
   25.3880   21.9510   22.6440 C   0  0  0  0  0  0  0  0  0  0  0  0
   24.6640   20.7890   22.5670 C   0  0  0  0  0  0  0  0  0  0  0  0
   25.0580   19.8000   21.7010 C   0  0  0  0  0  0  0  0  0  0  0  0
   26.1720   19.9790   20.8970 C   0  0  0  0  0  0  0  0  0  0  0  0
  6  7  1  1
  6  5  1  0
  5  2  1  0
  3  2  2  0
  2  1  2  0
  4  2  1  0
  8  6  1  0
  8 13  2  0
 13 12  1  0
 12 11  2  0
 11 10  1  0
 10  9  2  0
  9  8  1  0
M  END
>  <smiles>  (27) 
C[C@H](CS(N)(=O)=O)c1ccccc1

>  <inchikey>  (27) 
HXLOQIXEAPZOSG-MRVPVSSYSA-N

>  <alias>  (27) 
A0719b

$$$$
A0863a
     RDKit          3D

 14 14  0  0  0  0  0  0  0  0999 V2000
   27.7580   20.3250   19.0390 O   0  0  0  0  0  0  0  0  0  0  0  0
   28.1430   21.0370   19.9400 C   0  0  0  0  0  0  0  0  0  0  0  0
   27.3410   21.3460   20.9790 N   0  0  0  0  0  0  0  0  0  0  0  0
   27.6460   22.1370   22.1730 C   0  0  0  0  0  0  0  0  0  0  0  0
   26.6580   21.9320   23.2970 C   0  0  0  0  0  0  0  0  0  0  0  0
   25.9410   20.9030   20.8390 C   0  0  0  0  0  0  0  0  0  0  0  0
   25.7170   19.5050   21.3010 C   0  0  0  0  0  0  0  0  0  0  0  0
   29.5310   21.5930   19.8540 C   0  0  0  0  0  0  0  0  0  0  0  0
   29.8470   22.9310   20.0940 C   0  0  0  0  0  0  0  0  0  0  0  0
   31.1050   23.4270   19.7940 C   0  0  0  0  0  0  0  0  0  0  0  0
   32.0810   22.6070   19.2250 C   0  0  0  0  0  0  0  0  0  0  0  0
   33.3400   23.1050   18.9240 N   0  0  0  0  0  0  0  0  0  0  0  0
   31.7600   21.2680   18.9750 C   0  0  0  0  0  0  0  0  0  0  0  0
   30.5110   20.7680   19.3010 C   0  0  0  0  0  0  0  0  0  0  0  0
  7  6  1  0
  6  3  1  0
  4  3  1  0
  5  4  1  0
  3  2  1  0
  2  1  2  0
  8  2  1  0
  8 14  2  0
 14 13  1  0
 13 11  2  0
 12 11  1  0
 11 10  1  0
 10  9  2  0
  9  8  1  0
M  END
>  <smiles>  (28) 
CCN(CC)C(=O)c1ccc(N)cc1

>  <inchikey>  (28) 
RNVOPVJRSRXPSX-UHFFFAOYSA-N

>  <alias>  (28) 
A0863a

$$$$
A0875a
     RDKit          3D

 14 14  0  0  0  0  0  0  0  0999 V2000
   15.7330   11.2830   24.2190 O   0  0  0  0  0  0  0  0  0  0  0  0
   14.6890   10.7970   24.5110 C   0  0  0  0  0  0  0  0  0  0  0  0
   14.5440    9.7150   25.2270 O   0  0  0  0  0  0  0  0  0  0  0  0
   13.4360   11.5130   24.1140 C   0  0  0  0  0  0  0  0  0  0  0  0
   13.3530   12.7700   24.9610 C   0  0  0  0  0  0  0  0  0  0  0  0
   12.0220   12.8720   25.6460 C   0  0  0  0  0  0  0  0  0  0  0  0
   12.1580   10.6980   24.2330 C   0  0  0  0  0  0  0  0  0  0  0  0
   11.0340   11.6150   23.7820 C   0  0  0  0  0  0  0  0  0  0  0  0
   11.0010   12.8510   24.5900 N   0  0  0  0  0  0  0  0  0  0  0  0
    9.6630   13.7250   24.8690 S   0  0  0  0  0  0  0  0  0  0  0  0
    9.6320   14.7570   23.8780 O   0  0  0  0  0  0  0  0  0  0  0  0
    9.6970   14.0980   26.2470 O   0  0  0  0  0  0  0  0  0  0  0  0
    8.2690   12.6440   24.5630 C   0  0  0  0  0  0  0  0  0  0  0  0
    8.2400   11.4310   25.4260 C   0  0  0  0  0  0  0  0  0  0  0  0
 14 13  1  0
 13 10  1  0
 11 10  2  0
 12 10  2  0
 10  9  1  0
  9  6  1  0
  6  5  1  0
  5  4  1  0
  7  4  1  0
  8  7  1  0
  9  8  1  0
  4  2  1  0
  2  1  2  0
  3  2  1  0
M  END
>  <smiles>  (29) 
CCS(=O)(=O)N1CCC(C(=O)O)CC1

>  <inchikey>  (29) 
FXILSJTWIHHRJV-UHFFFAOYSA-N

>  <alias>  (29) 
A0875a

$$$$
A0884a
     RDKit          3D

 14 14  0  0  0  0  0  0  0  0999 V2000
   12.3890   14.1920   22.3820 O   0  0  0  0  0  0  0  0  0  0  0  0
   11.5640   13.6870   23.1630 C   0  0  0  0  0  0  0  0  0  0  0  0
   11.4810   14.0480   24.4380 N   0  0  0  0  0  0  0  0  0  0  0  0
   10.7240   12.6720   22.7770 N   0  0  0  0  0  0  0  0  0  0  0  0
    9.7260   11.9940   23.5260 C   0  0  0  0  0  0  0  0  0  0  0  0
    9.6180   10.6190   23.3720 C   0  0  0  0  0  0  0  0  0  0  0  0
    8.6080    9.9300   24.0230 C   0  0  0  0  0  0  0  0  0  0  0  0
    7.7080   10.6000   24.8380 C   0  0  0  0  0  0  0  0  0  0  0  0
    8.8310   12.6670   24.3580 C   0  0  0  0  0  0  0  0  0  0  0  0
    7.8330   11.9700   25.0300 C   0  0  0  0  0  0  0  0  0  0  0  0
    7.0280   12.7300   25.9270 N   0  0  0  0  0  0  0  0  0  0  0  0
    5.9550   12.3550   26.6750 C   0  0  0  0  0  0  0  0  0  0  0  0
    4.9720   13.0750   26.8320 O   0  0  0  0  0  0  0  0  0  0  0  0
    6.0720   11.0230   27.3600 C   0  0  0  0  0  0  0  0  0  0  0  0
 14 12  1  0
 13 12  2  0
 12 11  1  0
 11 10  1  0
 10  8  1  0
  8  7  2  0
  7  6  1  0
  6  5  2  0
  5  4  1  0
  4  2  1  0
  2  1  2  0
  3  2  1  0
  9  5  1  0
 10  9  2  0
M  END
>  <smiles>  (30) 
CC(=O)Nc1cccc(NC(N)=O)c1

>  <inchikey>  (30) 
GVNXANNAMKHSRF-UHFFFAOYSA-N

>  <alias>  (30) 
A0884a

$$$$
A0926a
     RDKit          3D

 14 14  0  0  0  0  0  0  0  0999 V2000
   10.0640   16.3360   19.2900 O   0  0  0  0  0  0  0  0  0  0  0  0
   10.3900   15.1620   19.4820 C   0  0  0  0  0  0  0  0  0  0  0  0
   10.7000   14.3370   18.4960 N   0  0  0  0  0  0  0  0  0  0  0  0
   10.4110   14.5710   20.8800 C   0  0  1  0  0  0  0  0  0  0  0  0
   11.5450   15.1600   21.7290 C   0  0  0  0  0  0  0  0  0  0  0  0
   11.5420   14.5340   23.1180 C   0  0  0  0  0  0  0  0  0  0  0  0
   10.2020   14.7550   23.7610 C   0  0  0  0  0  0  0  0  0  0  0  0
    9.0850   14.8020   21.6010 C   0  0  0  0  0  0  0  0  0  0  0  0
    9.1500   14.1740   22.9210 N   0  0  0  0  0  0  0  0  0  0  0  0
    8.3720   13.1480   23.3150 C   0  0  0  0  0  0  0  0  0  0  0  0
    7.3820   12.8080   22.6840 O   0  0  0  0  0  0  0  0  0  0  0  0
    8.8200   12.4150   24.5710 C   0  0  0  0  0  0  0  0  0  0  0  0
    7.9990   11.3170   24.9520 O   0  0  0  0  0  0  0  0  0  0  0  0
    6.7420   11.7110   25.4970 C   0  0  0  0  0  0  0  0  0  0  0  0
 14 13  1  0
 13 12  1  0
 12 10  1  0
 11 10  2  0
 10  9  1  0
  9  7  1  0
  7  6  1  0
  6  5  1  0
  5  4  1  0
  8  4  1  0
  9  8  1  0
  4  2  1  6
  2  1  2  0
  3  2  1  0
M  END
>  <smiles>  (31) 
COCC(=O)N1CCC[C@H](C(N)=O)C1

>  <inchikey>  (31) 
VINVRWFILPAKSR-ZETCQYMHSA-N

>  <alias>  (31) 
A0926a

$$$$
A1068a
     RDKit          3D

  7  7  0  0  0  0  0  0  0  0999 V2000
    6.6240   10.3080   25.5720 N   0  0  0  0  0  0  0  0  0  0  0  0
    7.6530   10.5830   24.7670 C   0  0  0  0  0  0  0  0  0  0  0  0
    7.9990   11.8790   24.6190 N   0  0  0  0  0  0  0  0  0  0  0  0
    9.0020   12.1290   23.7660 C   0  0  0  0  0  0  0  0  0  0  0  0
    9.6610   11.1470   23.0590 C   0  0  0  0  0  0  0  0  0  0  0  0
    9.2440    9.8560   23.2900 C   0  0  0  0  0  0  0  0  0  0  0  0
    8.2500    9.5430   24.1300 N   0  0  0  0  0  0  0  0  0  0  0  0
  2  1  1  0
  2  7  2  0
  7  6  1  0
  6  5  2  0
  5  4  1  0
  4  3  2  0
  3  2  1  0
M  END
>  <smiles>  (32) 
Nc1ncccn1

>  <inchikey>  (32) 
LJXQPZWIHJMPQQ-UHFFFAOYSA-N

>  <alias>  (32) 
A1068a

$$$$
A1068b
     RDKit          3D

  7  7  0  0  0  0  0  0  0  0999 V2000
   14.4150   -4.4580    0.7000 N   0  0  0  0  0  0  0  0  0  0  0  0
   15.5520   -4.7070    1.3330 C   0  0  0  0  0  0  0  0  0  0  0  0
   16.3020   -5.7390    0.8940 N   0  0  0  0  0  0  0  0  0  0  0  0
   17.4670   -5.9350    1.5240 C   0  0  0  0  0  0  0  0  0  0  0  0
   17.9010   -5.1570    2.5810 C   0  0  0  0  0  0  0  0  0  0  0  0
   17.0520   -4.1470    2.9600 C   0  0  0  0  0  0  0  0  0  0  0  0
   15.8810   -3.9010    2.3640 N   0  0  0  0  0  0  0  0  0  0  0  0
  2  1  1  0
  2  7  2  0
  7  6  1  0
  6  5  2  0
  5  4  1  0
  4  3  2  0
  3  2  1  0
M  END
>  <smiles>  (33) 
Nc1ncccn1

>  <inchikey>  (33) 
LJXQPZWIHJMPQQ-UHFFFAOYSA-N

>  <alias>  (33) 
A1068b

$$$$
A1080a
     RDKit          3D

  6  5  0  0  0  0  0  0  0  0999 V2000
    5.3510   14.2090   24.2170 O   0  0  0  0  0  0  0  0  0  0  0  0
    5.7890   14.6830   23.1750 C   0  0  0  0  0  0  0  0  0  0  0  0
    5.6220   15.9450   22.8390 N   0  0  0  0  0  0  0  0  0  0  0  0
    6.7210   16.7060   22.4470 O   0  0  0  0  0  0  0  0  0  0  0  0
    6.5730   13.8610   22.1880 C   0  0  0  0  0  0  0  0  0  0  0  0
    7.9260   13.4480   22.7150 C   0  0  0  0  0  0  0  0  0  0  0  0
  6  5  1  0
  5  2  1  0
  2  1  2  0
  3  2  1  0
  4  3  1  0
M  END
>  <smiles>  (34) 
CCC(=O)NO

>  <inchikey>  (34) 
RSIPQHOWTCNEBI-UHFFFAOYSA-N

>  <alias>  (34) 
A1080a

$$$$
A1081b
     RDKit          3D

  6  6  0  0  0  0  0  0  0  0999 V2000
    0.0000    6.0380    6.6240 O   0  0  0  0  0  0  0  0  0  0  0  0
   -0.0380    7.0870    5.9840 C   0  0  0  0  0  0  0  0  0  0  0  0
   -0.7480    7.2940    4.8660 N   0  0  0  0  0  0  0  0  0  0  0  0
   -0.5520    8.6350    4.3310 C   0  0  0  0  0  0  0  0  0  0  0  0
    0.5960    9.1710    5.1810 C   0  0  0  0  0  0  0  0  0  0  0  0
    0.6960    8.1750    6.2410 N   0  0  0  0  0  0  0  0  0  0  0  0
  2  1  2  0
  2  6  1  0
  6  5  1  0
  5  4  1  0
  4  3  1  0
  3  2  1  0
M  END
>  <smiles>  (35) 
O=C1NCCN1

>  <inchikey>  (35) 
YAMHXTCMCPHKLN-UHFFFAOYSA-N

>  <alias>  (35) 
A1081b

$$$$
A1105b
     RDKit          3D

 12 13  0  0  0  0  0  0  0  0999 V2000
   18.2240   -3.5600   18.3210 C   0  0  0  0  0  0  0  0  0  0  0  0
   19.2270   -3.0750   19.1320 C   0  0  0  0  0  0  0  0  0  0  0  0
   19.4870   -3.5480   20.3550 N   0  0  0  0  0  0  0  0  0  0  0  0
   18.7260   -4.5630   20.7790 C   0  0  0  0  0  0  0  0  0  0  0  0
   17.7160   -5.1250   20.0270 C   0  0  0  0  0  0  0  0  0  0  0  0
   17.4250   -4.6000   18.7740 C   0  0  0  0  0  0  0  0  0  0  0  0
   16.1920   -5.0000   18.0380 C   0  0  0  0  0  0  0  0  0  0  0  0
   15.2170   -4.0580   17.7190 C   0  0  0  0  0  0  0  0  0  0  0  0
   13.9960   -4.4480   17.1860 C   0  0  0  0  0  0  0  0  0  0  0  0
   15.9170   -6.3410   17.7680 C   0  0  0  0  0  0  0  0  0  0  0  0
   14.6970   -6.7210   17.2260 C   0  0  0  0  0  0  0  0  0  0  0  0
   13.7340   -5.7750   16.9470 C   0  0  0  0  0  0  0  0  0  0  0  0
 12  9  1  0
  9  8  2  0
  8  7  1  0
 10  7  2  0
 11 10  1  0
 12 11  2  0
  7  6  1  0
  6  5  2  0
  5  4  1  0
  4  3  2  0
  3  2  1  0
  2  1  2  0
  6  1  1  0
M  END
>  <smiles>  (36) 
c1ccc(-c2ccncc2)cc1

>  <inchikey>  (36) 
JVZRCNQLWOELDU-UHFFFAOYSA-N

>  <alias>  (36) 
A1105b

$$$$
A1140a
     RDKit          3D

 15 16  0  0  0  0  0  0  0  0999 V2000
   13.0970    9.6510   24.7100 O   0  0  0  0  0  0  0  0  0  0  0  0
   12.6740   10.7620   24.4830 C   0  0  0  0  0  0  0  0  0  0  0  0
   11.1810   11.0070   24.4930 C   0  0  0  0  0  0  0  0  0  0  0  0
   10.3330    9.9090   24.3250 C   0  0  0  0  0  0  0  0  0  0  0  0
    8.9580   10.0560   24.4220 C   0  0  0  0  0  0  0  0  0  0  0  0
    8.4030   11.2950   24.6420 C   0  0  0  0  0  0  0  0  0  0  0  0
    9.2190   12.4040   24.7920 C   0  0  0  0  0  0  0  0  0  0  0  0
   10.5930   12.2440   24.7420 C   0  0  0  0  0  0  0  0  0  0  0  0
   11.5700   13.6050   25.1100 Cl  0  0  0  0  0  0  0  0  0  0  0  0
   13.6670   11.8880   24.2040 C   0  0  0  0  0  0  0  0  0  0  0  0
   14.7360   12.1490   25.1900 N   0  0  0  0  0  0  0  0  0  0  0  0
   14.2450   12.4950   26.5300 C   0  0  0  0  0  0  0  0  0  0  0  0
   15.4900   12.4370   27.3880 C   0  0  0  0  0  0  0  0  0  0  0  0
   16.3130   11.3300   26.7530 C   0  0  0  0  0  0  0  0  0  0  0  0
   15.6230   11.0000   25.4290 C   0  0  0  0  0  0  0  0  0  0  0  0
  9  8  1  0
  8  7  1  0
  7  6  2  0
  6  5  1  0
  5  4  2  0
  4  3  1  0
  8  3  2  0
  3  2  1  0
  2  1  2  0
 10  2  1  0
 11 10  1  0
 11 15  1  0
 15 14  1  0
 14 13  1  0
 13 12  1  0
 12 11  1  0
M  END
>  <smiles>  (37) 
O=C(CN1CCCC1)c1ccccc1Cl

>  <inchikey>  (37) 
BDGKBEOKGJRBPL-UHFFFAOYSA-N

>  <alias>  (37) 
A1140a

$$$$
A1145a
     RDKit          3D

 14 15  0  0  0  0  0  0  0  0999 V2000
   33.1530   22.7940   18.8770 F   0  0  0  0  0  0  0  0  0  0  0  0
   31.9270   22.2810   19.1710 C   0  0  0  0  0  0  0  0  0  0  0  0
   31.6790   20.9660   18.8840 C   0  0  0  0  0  0  0  0  0  0  0  0
   30.4030   20.4770   19.1070 C   0  0  0  0  0  0  0  0  0  0  0  0
   29.3910   21.2960   19.5880 C   0  0  0  0  0  0  0  0  0  0  0  0
   29.7060   22.6160   19.8910 C   0  0  0  0  0  0  0  0  0  0  0  0
   30.9810   23.1160   19.6890 C   0  0  0  0  0  0  0  0  0  0  0  0
   27.9560   20.8200   19.5800 C   0  0  0  0  0  0  0  0  0  0  0  0
   27.2310   20.7350   20.9290 C   0  0  1  0  0  0  0  0  0  0  0  0
   27.0520   22.1230   21.5440 C   0  0  0  0  0  0  0  0  0  0  0  0
   26.1380   22.1680   22.6870 N   0  0  0  0  0  0  0  0  0  0  0  0
   24.8160   21.6840   22.3340 C   0  0  0  0  0  0  0  0  0  0  0  0
   24.9480   20.2490   21.9850 C   0  0  0  0  0  0  0  0  0  0  0  0
   25.8560   20.0760   20.7710 C   0  0  0  0  0  0  0  0  0  0  0  0
  2  1  1  0
  2  7  2  0
  7  6  1  0
  6  5  2  0
  8  5  1  0
  9  8  1  6
  9 14  1  0
 14 13  1  0
 13 12  1  0
 12 11  1  0
 11 10  1  0
 10  9  1  0
  5  4  1  0
  4  3  2  0
  3  2  1  0
M  END
>  <smiles>  (38) 
Fc1ccc(C[C@@H]2CCCNC2)cc1

>  <inchikey>  (38) 
WATWKPHWUDHKGA-NSHDSACASA-N

>  <alias>  (38) 
A1145a

$$$$
A1146a
     RDKit          3D

 13 14  0  0  0  0  0  0  0  0999 V2000
   24.4590   21.0920   21.9130 O   0  0  0  0  0  0  0  0  0  0  0  0
   25.7980   21.0350   21.6640 C   0  0  0  0  0  0  0  0  0  0  0  0
   26.5620   22.1480   21.9280 C   0  0  0  0  0  0  0  0  0  0  0  0
   27.7500   22.3630   21.3490 N   0  0  0  0  0  0  0  0  0  0  0  0
   28.1700   21.4250   20.4880 C   0  0  0  0  0  0  0  0  0  0  0  0
   27.5030   20.3070   20.1610 N   0  0  0  0  0  0  0  0  0  0  0  0
   26.3190   20.1270   20.7630 C   0  0  0  0  0  0  0  0  0  0  0  0
   29.4960   21.6380   19.8490 C   0  0  0  0  0  0  0  0  0  0  0  0
   30.1200   22.8840   19.8970 C   0  0  0  0  0  0  0  0  0  0  0  0
   31.3410   23.0890   19.2750 C   0  0  0  0  0  0  0  0  0  0  0  0
   31.9560   22.0600   18.5970 C   0  0  0  0  0  0  0  0  0  0  0  0
   31.3570   20.8230   18.5450 C   0  0  0  0  0  0  0  0  0  0  0  0
   30.1380   20.6080   19.1660 C   0  0  0  0  0  0  0  0  0  0  0  0
  2  1  1  0
  2  7  2  0
  7  6  1  0
  6  5  2  0
  5  4  1  0
  4  3  2  0
  3  2  1  0
  8  5  1  0
  8 13  2  0
 13 12  1  0
 12 11  2  0
 11 10  1  0
 10  9  2  0
  9  8  1  0
M  END
>  <smiles>  (39) 
Oc1cnc(-c2ccccc2)nc1

>  <inchikey>  (39) 
VXOJYMHSOARYSV-UHFFFAOYSA-N

>  <alias>  (39) 
A1146a

$$$$
A1180a
     RDKit          3D

  6  6  0  0  0  0  0  0  0  0999 V2000
    2.4900   12.9810   17.9860 Cl  0  0  0  0  0  0  0  0  0  0  0  0
    2.9960   11.8140   19.1680 C   0  0  0  0  0  0  0  0  0  0  0  0
    4.0950   11.0150   19.0450 N   0  0  0  0  0  0  0  0  0  0  0  0
    4.0960   10.2160   20.1000 C   0  0  0  0  0  0  0  0  0  0  0  0
    3.0570   10.4570   20.9170 N   0  0  0  0  0  0  0  0  0  0  0  0
    2.3330   11.4810   20.3720 C   0  0  0  0  0  0  0  0  0  0  0  0
  2  1  1  0
  2  6  2  0
  6  5  1  0
  5  4  1  0
  4  3  2  0
  3  2  1  0
M  END
>  <smiles>  (40) 
Clc1c[nH]cn1

>  <inchikey>  (40) 
BQRBAXFOPZRMCU-UHFFFAOYSA-N

>  <alias>  (40) 
A1180a

$$$$
A1209a
     RDKit          3D

  6  6  0  0  0  0  0  0  0  0999 V2000
    9.5600    9.2170   23.2780 Br  0  0  0  0  0  0  0  0  0  0  0  0
    8.3850    9.9550   24.5230 C   0  0  0  0  0  0  0  0  0  0  0  0
    7.2530    9.2930   24.9640 N   0  0  0  0  0  0  0  0  0  0  0  0
    6.6230   10.1170   25.8540 C   0  0  0  0  0  0  0  0  0  0  0  0
    7.3760   11.2230   25.9330 C   0  0  0  0  0  0  0  0  0  0  0  0
    8.4570   11.1180   25.1000 N   0  0  0  0  0  0  0  0  0  0  0  0
  2  1  1  0
  2  6  2  0
  6  5  1  0
  5  4  2  0
  4  3  1  0
  3  2  1  0
M  END
>  <smiles>  (41) 
Brc1ncc[nH]1

>  <inchikey>  (41) 
AXHRGVJWDJDYPO-UHFFFAOYSA-N

>  <alias>  (41) 
A1209a

$$$$
A1293a
     RDKit          3D

 10 11  0  0  0  0  0  0  0  0999 V2000
   18.5630    1.3390   21.5370 N   0  0  0  0  0  0  0  0  0  0  0  0
   18.2830    0.0570   21.2850 C   0  0  0  0  0  0  0  0  0  0  0  0
   18.6700   -0.9760   22.1390 N   0  0  0  0  0  0  0  0  0  0  0  0
   18.1160   -2.1170   21.5580 C   0  0  0  0  0  0  0  0  0  0  0  0
   17.4740   -1.8040   20.4320 N   0  0  0  0  0  0  0  0  0  0  0  0
   17.5830   -0.4170   20.2630 N   0  0  0  0  0  0  0  0  0  0  0  0
   19.3880   -1.0280   23.3210 C   0  0  0  0  0  0  0  0  0  0  0  0
   19.5360   -2.2090   23.9580 C   0  0  0  0  0  0  0  0  0  0  0  0
   18.9700   -3.3840   23.4120 C   0  0  0  0  0  0  0  0  0  0  0  0
   18.2780   -3.3500   22.2390 C   0  0  0  0  0  0  0  0  0  0  0  0
  2  1  1  0
  2  6  2  0
  6  5  1  0
  5  4  2  0
  4 10  1  0
 10  9  2  0
  9  8  1  0
  8  7  2  0
  7  3  1  0
  3  2  1  0
  4  3  1  0
M  END
>  <smiles>  (42) 
Nc1nnc2ccccn12

>  <inchikey>  (42) 
NCZQAIFOXJOCFI-UHFFFAOYSA-N

>  <alias>  (42) 
A1293a

$$$$
A1445a
     RDKit          3D

 18 18  0  0  0  0  0  0  0  0999 V2000
    0.9940   11.4570   29.1410 F   0  0  0  0  0  0  0  0  0  0  0  0
    1.7660   10.5610   29.7610 C   0  0  0  0  0  0  0  0  0  0  0  0
    1.4840   10.6480   31.0600 F   0  0  0  0  0  0  0  0  0  0  0  0
    1.3480    9.3610   29.3610 F   0  0  0  0  0  0  0  0  0  0  0  0
    3.2300   10.7820   29.4780 C   0  0  2  0  0  0  0  0  0  0  0  0
    3.5830   12.2460   29.7450 C   0  0  0  0  0  0  0  0  0  0  0  0
    3.5430   10.3850   28.0280 C   0  0  0  0  0  0  0  0  0  0  0  0
    4.9460   10.7160   27.5420 C   0  0  0  0  0  0  0  0  0  0  0  0
    5.8150   11.1610   28.2890 O   0  0  0  0  0  0  0  0  0  0  0  0
    5.1510   10.5150   26.2080 N   0  0  0  0  0  0  0  0  0  0  0  0
    6.3460   10.7510   25.5290 C   0  0  0  0  0  0  0  0  0  0  0  0
    7.2030    9.9020   24.8840 C   0  0  0  0  0  0  0  0  0  0  0  0
    6.8180   12.0180   25.3340 N   0  0  0  0  0  0  0  0  0  0  0  0
    6.2670   13.2920   25.7800 C   0  0  0  0  0  0  0  0  0  0  0  0
    7.9510   12.0160   24.5820 N   0  0  0  0  0  0  0  0  0  0  0  0
    8.1810   10.7130   24.2900 C   0  0  0  0  0  0  0  0  0  0  0  0
    9.1840   10.3500   23.4860 O   0  0  0  0  0  0  0  0  0  0  0  0
    9.3570    8.9380   23.2060 C   0  0  0  0  0  0  0  0  0  0  0  0
 18 17  1  0
 17 16  1  0
 16 12  1  0
 12 11  2  0
 11 10  1  0
 10  8  1  0
  9  8  2  0
  8  7  1  0
  7  5  1  0
  5  6  1  6
  5  2  1  0
  3  2  1  0
  4  2  1  0
  2  1  1  0
 13 11  1  0
 14 13  1  0
 15 13  1  0
 16 15  2  0
M  END
>  <smiles>  (43) 
COc1cc(NC(=O)C[C@@H](C)C(F)(F)F)n(C)n1

>  <inchikey>  (43) 
NZVJBVJDSSUPIL-ZCFIWIBFSA-N

>  <alias>  (43) 
A1445a

$$$$
A1775a
     RDKit          3D

 13 13  0  0  0  0  0  0  0  0999 V2000
   12.3120    9.0470   21.5260 O   0  0  0  0  0  0  0  0  0  0  0  0
   12.2440   10.1160   22.1090 C   0  0  0  0  0  0  0  0  0  0  0  0
   13.1670   11.2610   21.7910 C   0  0  0  0  0  0  0  0  0  0  0  0
   14.2250   10.9600   20.7460 C   0  0  0  0  0  0  0  0  0  0  0  0
   11.1720   10.3660   23.1130 C   0  0  0  0  0  0  0  0  0  0  0  0
   11.0310   11.5950   23.7540 C   0  0  0  0  0  0  0  0  0  0  0  0
    9.9440   11.8430   24.5730 C   0  0  0  0  0  0  0  0  0  0  0  0
   10.2210    9.3770   23.3480 C   0  0  0  0  0  0  0  0  0  0  0  0
    9.1410    9.6160   24.1780 C   0  0  0  0  0  0  0  0  0  0  0  0
    8.9920   10.8510   24.7760 C   0  0  0  0  0  0  0  0  0  0  0  0
    7.8390   10.9720   25.5210 O   0  0  0  0  0  0  0  0  0  0  0  0
    7.4740   12.2870   25.9910 C   0  0  0  0  0  0  0  0  0  0  0  0
    6.1310   12.1990   26.5390 C   0  0  0  0  0  0  0  0  0  0  0  0
 13 12  1  0
 12 11  1  0
 11 10  1  0
 10  7  2  0
  7  6  1  0
  6  5  2  0
  5  2  1  0
  2  1  2  0
  3  2  1  0
  4  3  1  0
  8  5  1  0
  9  8  2  0
 10  9  1  0
M  END
>  <smiles>  (44) 
CCOc1ccc(C(=O)CC)cc1

>  <inchikey>  (44) 
XZJXCESWBMDSBO-UHFFFAOYSA-N

>  <alias>  (44) 
A1775a

$$$$
A1776a
     RDKit          3D

 15 15  0  0  0  0  0  0  0  0999 V2000
    8.2200   12.8230   27.0020 O   0  0  0  0  0  0  0  0  0  0  0  0
    7.3830   12.0380   26.5790 C   0  0  0  0  0  0  0  0  0  0  0  0
    5.9680   12.0100   27.0990 C   0  0  0  0  0  0  0  0  0  0  0  0
    7.6560   11.1260   25.6300 N   0  0  0  0  0  0  0  0  0  0  0  0
    8.8640   10.9550   24.9070 C   0  0  0  0  0  0  0  0  0  0  0  0
    8.9280    9.7890   24.1730 C   0  0  0  0  0  0  0  0  0  0  0  0
   10.0350    9.5130   23.3980 C   0  0  0  0  0  0  0  0  0  0  0  0
    9.9380   11.8450   24.8710 C   0  0  0  0  0  0  0  0  0  0  0  0
   11.0420   11.5710   24.0820 C   0  0  0  0  0  0  0  0  0  0  0  0
   11.1010   10.4070   23.3290 C   0  0  0  0  0  0  0  0  0  0  0  0
   12.2170   10.1290   22.3760 C   0  0  0  0  0  0  0  0  0  0  0  0
   12.1130    9.2350   21.5500 O   0  0  0  0  0  0  0  0  0  0  0  0
   13.4610   10.9750   22.4000 C   0  0  2  0  0  0  0  0  0  0  0  0
   14.1990   11.0830   21.0250 C   0  0  0  0  0  0  0  0  0  0  0  0
   14.5070   10.2450   23.7650 S   0  0  0  0  0  0  0  0  0  0  0  0
 13 14  1  6
 13 11  1  0
 12 11  2  0
 11 10  1  0
 10  7  2  0
  7  6  1  0
  6  5  2  0
  5  4  1  0
  4  2  1  0
  3  2  1  0
  2  1  2  0
  8  5  1  0
  9  8  2  0
 10  9  1  0
 15 13  1  0
M  END
>  <smiles>  (45) 
CC(=O)Nc1ccc(C(=O)[C@H](C)S)cc1

>  <inchikey>  (45) 
FBLBPROAKYHBCY-ZETCQYMHSA-N

>  <alias>  (45) 
A1776a

$$$$
A1778a
     RDKit          3D

 17 18  0  0  0  0  0  0  0  0999 V2000
    6.6850   10.5040   25.8550 O   0  0  0  0  0  0  0  0  0  0  0  0
    6.9430   11.6980   25.9680 C   0  0  0  0  0  0  0  0  0  0  0  0
    5.9540   12.6420   26.5900 C   0  0  0  0  0  0  0  0  0  0  0  0
    8.1210   12.2450   25.5040 N   0  0  0  0  0  0  0  0  0  0  0  0
    9.1200   11.5780   24.7420 C   0  0  0  0  0  0  0  0  0  0  0  0
    9.1210   10.2680   24.2860 C   0  0  0  0  0  0  0  0  0  0  0  0
   10.1880    9.8610   23.5180 C   0  0  0  0  0  0  0  0  0  0  0  0
    8.4490   13.6790   25.5650 C   0  0  0  0  0  0  0  0  0  0  0  0
    9.8860   13.7990   25.0680 C   0  0  0  0  0  0  0  0  0  0  0  0
   10.1500   12.4620   24.4250 C   0  0  0  0  0  0  0  0  0  0  0  0
   11.2340   12.0360   23.6710 C   0  0  0  0  0  0  0  0  0  0  0  0
   11.2460   10.7270   23.1850 C   0  0  0  0  0  0  0  0  0  0  0  0
   12.3480   10.2250   22.3010 C   0  0  0  0  0  0  0  0  0  0  0  0
   12.1710    9.2050   21.6400 O   0  0  0  0  0  0  0  0  0  0  0  0
   13.7040   10.8560   22.2240 C   0  0  2  0  0  0  0  0  0  0  0  0
   14.2760   10.9760   20.8460 C   0  0  0  0  0  0  0  0  0  0  0  0
   14.7500   10.2170   23.5380 S   0  0  0  0  0  0  0  0  0  0  0  0
 15 16  1  6
 15 13  1  0
 14 13  2  0
 13 12  1  0
 12  7  1  0
  7  6  2  0
  6  5  1  0
  5 10  2  0
 11 10  1  0
 12 11  2  0
 10  9  1  0
  9  8  1  0
  8  4  1  0
  5  4  1  0
  4  2  1  0
  3  2  1  0
  2  1  2  0
 17 15  1  0
M  END
>  <smiles>  (46) 
CC(=O)N1CCc2cc(C(=O)[C@H](C)S)ccc21

>  <inchikey>  (46) 
CFBWWTWBRVSRSJ-QMMMGPOBSA-N

>  <alias>  (46) 
A1778a

$$$$
A1779a
     RDKit          3D

 15 16  0  0  0  0  0  0  0  0999 V2000
    9.0900   14.1120   26.9080 O   0  0  0  0  0  0  0  0  0  0  0  0
    9.0920   13.0550   26.2870 C   0  0  0  0  0  0  0  0  0  0  0  0
    7.8910   12.0900   26.2510 C   0  0  0  0  0  0  0  0  0  0  0  0
    8.1000   10.7680   25.7420 O   0  0  0  0  0  0  0  0  0  0  0  0
   10.1630   12.6740   25.5650 N   0  0  0  0  0  0  0  0  0  0  0  0
   10.2220   11.5060   24.8040 C   0  0  0  0  0  0  0  0  0  0  0  0
    9.1580   10.5980   24.8800 C   0  0  0  0  0  0  0  0  0  0  0  0
    9.1550    9.4510   24.1100 C   0  0  0  0  0  0  0  0  0  0  0  0
   10.2210    9.1940   23.2690 C   0  0  0  0  0  0  0  0  0  0  0  0
   11.2920   11.2440   23.9540 C   0  0  0  0  0  0  0  0  0  0  0  0
   11.2900   10.0850   23.1790 C   0  0  0  0  0  0  0  0  0  0  0  0
   12.3990    9.7740   22.2340 C   0  0  0  0  0  0  0  0  0  0  0  0
   12.3160    8.8270   21.4740 O   0  0  0  0  0  0  0  0  0  0  0  0
   13.6060   10.6490   22.2070 C   0  0  0  0  0  0  0  0  0  0  0  0
   14.3730   10.6030   20.8990 C   0  0  0  0  0  0  0  0  0  0  0  0
 15 14  1  0
 14 12  1  0
 13 12  2  0
 12 11  1  0
 11  9  1  0
  9  8  2  0
  8  7  1  0
  7  4  1  0
  4  3  1  0
  3  2  1  0
  2  1  2  0
  5  2  1  0
  6  5  1  0
  7  6  2  0
 10  6  1  0
 11 10  2  0
M  END
>  <smiles>  (47) 
CCC(=O)c1ccc2c(c1)NC(=O)CO2

>  <inchikey>  (47) 
SGXMEUBMGXFRJY-UHFFFAOYSA-N

>  <alias>  (47) 
A1779a

$$$$
A2290a
     RDKit          3D

 14 15  0  0  0  0  0  0  0  0999 V2000
   11.0400   13.9860   24.3770 O   0  0  0  0  0  0  0  0  0  0  0  0
   10.8880   13.1340   23.5180 C   0  0  0  0  0  0  0  0  0  0  0  0
   11.5040   13.1710   22.3390 N   0  0  0  0  0  0  0  0  0  0  0  0
   12.5070   14.1800   22.0440 C   0  0  0  0  0  0  0  0  0  0  0  0
    9.9980   11.9410   23.7680 C   0  0  0  0  0  0  0  0  0  0  0  0
    8.8850   11.8100   24.6670 C   0  0  0  0  0  0  0  0  0  0  0  0
    8.4980   10.4670   24.5630 C   0  0  0  0  0  0  0  0  0  0  0  0
    9.3160    9.9040   23.6260 N   0  0  0  0  0  0  0  0  0  0  0  0
    9.2010    8.5970   22.9870 C   0  0  0  0  0  0  0  0  0  0  0  0
   10.2530   10.7900   23.1620 N   0  0  0  0  0  0  0  0  0  0  0  0
    8.2100   12.6390   25.5510 C   0  0  0  0  0  0  0  0  0  0  0  0
    7.1670   12.1270   26.3040 C   0  0  0  0  0  0  0  0  0  0  0  0
    6.8050   10.7920   26.2060 C   0  0  0  0  0  0  0  0  0  0  0  0
    7.4730    9.9350   25.3380 C   0  0  0  0  0  0  0  0  0  0  0  0
  4  3  1  0
  3  2  1  0
  2  1  2  0
  5  2  1  0
  5 10  2  0
 10  8  1  0
  9  8  1  0
  8  7  1  0
  7 14  2  0
 14 13  1  0
 13 12  2  0
 12 11  1  0
 11  6  2  0
  6  5  1  0
  7  6  1  0
M  END
>  <smiles>  (48) 
CNC(=O)c1nn(C)c2ccccc12

>  <inchikey>  (48) 
DXESIOGIYNKDQX-UHFFFAOYSA-N

>  <alias>  (48) 
A2290a

$$$$
A2293a
     RDKit          3D

 24 27  0  0  0  0  0  0  0  0999 V2000
   10.3290   14.5820   23.3500 O   0  0  0  0  0  0  0  0  0  0  0  0
   10.7010   13.5310   22.8360 C   0  0  0  0  0  0  0  0  0  0  0  0
   10.0260   12.2380   23.1870 C   0  0  0  0  0  0  0  0  0  0  0  0
   10.3760   11.0940   22.6150 N   0  0  0  0  0  0  0  0  0  0  0  0
    9.0290   12.0210   24.1840 C   0  0  0  0  0  0  0  0  0  0  0  0
    8.7680   10.6440   24.1480 C   0  0  0  0  0  0  0  0  0  0  0  0
    7.8150   10.0500   24.9630 C   0  0  0  0  0  0  0  0  0  0  0  0
    7.1280   10.8830   25.8430 C   0  0  0  0  0  0  0  0  0  0  0  0
    7.3870   12.2410   25.8920 C   0  0  0  0  0  0  0  0  0  0  0  0
    8.3430   12.8280   25.0830 C   0  0  0  0  0  0  0  0  0  0  0  0
    9.6150   10.1230   23.2150 N   0  0  0  0  0  0  0  0  0  0  0  0
    9.8690    8.7200   22.9110 C   0  0  0  0  0  0  0  0  0  0  0  0
   11.7210   13.4440   21.9840 N   0  0  0  0  0  0  0  0  0  0  0  0
   12.4830   14.6440   21.5960 C   0  0  0  0  0  0  0  0  0  0  0  0
   12.5950   14.7620   20.0630 C   0  0  1  0  0  0  0  0  0  0  0  0
   11.2680   14.6390   19.4510 N   0  0  0  0  0  0  0  0  0  0  0  0
   10.3470   15.7240   19.7600 C   0  0  0  0  0  0  0  0  0  0  0  0
   10.9750   17.0910   19.6580 C   0  0  0  0  0  0  0  0  0  0  0  0
   12.3730   17.2490   19.6600 C   0  0  0  0  0  0  0  0  0  0  0  0
   13.2890   16.0450   19.6200 C   0  0  0  0  0  0  0  0  0  0  0  0
   10.1580   18.2150   19.5290 C   0  0  0  0  0  0  0  0  0  0  0  0
   10.7060   19.4810   19.4090 C   0  0  0  0  0  0  0  0  0  0  0  0
   12.0750   19.6410   19.4360 C   0  0  0  0  0  0  0  0  0  0  0  0
   12.9070   18.5360   19.5610 C   0  0  0  0  0  0  0  0  0  0  0  0
 12 11  1  0
 11  4  1  0
  4  3  2  0
  3  2  1  0
  2  1  2  0
 13  2  1  0
 14 13  1  0
 15 14  1  1
 15 20  1  0
 20 19  1  0
 19 24  2  0
 24 23  1  0
 23 22  2  0
 22 21  1  0
 21 18  2  0
 19 18  1  0
 18 17  1  0
 17 16  1  0
 16 15  1  0
  5  3  1  0
  5 10  2  0
 10  9  1  0
  9  8  2  0
  8  7  1  0
  7  6  2  0
  6  5  1  0
 11  6  1  0
M  END
>  <smiles>  (49) 
Cn1nc(C(=O)NC[C@@H]2Cc3ccccc3CN2)c2ccccc21

>  <inchikey>  (49) 
FCRASUWOKLJVQY-HNNXBMFYSA-N

>  <alias>  (49) 
A2293a

$$$$
A2304a
     RDKit          3D

 18 20  0  0  0  0  0  0  0  0999 V2000
   10.7260   14.6060   23.7040 O   0  0  0  0  0  0  0  0  0  0  0  0
   10.7390   13.5900   22.9910 C   0  0  0  0  0  0  0  0  0  0  0  0
   11.3590   13.5330   21.7810 N   0  0  0  0  0  0  0  0  0  0  0  0
   11.9640   14.6240   21.1270 C   0  0  0  0  0  0  0  0  0  0  0  0
   12.3910   15.8430   21.6160 C   0  0  0  0  0  0  0  0  0  0  0  0
   12.8810   16.5180   20.5690 N   0  0  0  0  0  0  0  0  0  0  0  0
   12.7940   15.8050   19.4310 N   0  0  0  0  0  0  0  0  0  0  0  0
   12.2220   14.6470   19.7550 C   0  0  0  0  0  0  0  0  0  0  0  0
   10.0800   12.3090   23.4390 C   0  0  0  0  0  0  0  0  0  0  0  0
   10.3770   11.1480   22.8490 N   0  0  0  0  0  0  0  0  0  0  0  0
    9.0450   12.1360   24.4120 C   0  0  0  0  0  0  0  0  0  0  0  0
    8.7330   10.7670   24.3600 C   0  0  0  0  0  0  0  0  0  0  0  0
    9.5440   10.2150   23.4140 N   0  0  0  0  0  0  0  0  0  0  0  0
    9.6750    8.8120   23.0560 C   0  0  0  0  0  0  0  0  0  0  0  0
    7.7550   10.2050   25.1750 C   0  0  0  0  0  0  0  0  0  0  0  0
    7.0760   11.0490   26.0510 C   0  0  0  0  0  0  0  0  0  0  0  0
    7.3700   12.4030   26.1070 C   0  0  0  0  0  0  0  0  0  0  0  0
    8.3460   12.9610   25.2960 C   0  0  0  0  0  0  0  0  0  0  0  0
 14 13  1  0
 13 10  1  0
 10  9  2  0
  9  2  1  0
  2  1  2  0
  3  2  1  0
  4  3  1  0
  4  8  1  0
  8  7  2  0
  7  6  1  0
  6  5  1  0
  5  4  2  0
 11  9  1  0
 11 18  2  0
 18 17  1  0
 17 16  2  0
 16 15  1  0
 15 12  2  0
 12 11  1  0
 13 12  1  0
M  END
>  <smiles>  (50) 
Cn1nc(C(=O)Nc2cn[nH]c2)c2ccccc21

>  <inchikey>  (50) 
JXKYXHWVMLLNCD-UHFFFAOYSA-N

>  <alias>  (50) 
A2304a

$$$$
A2454a
     RDKit          3D

 14 14  0  0  0  0  0  0  0  0999 V2000
    5.5060   13.7100   26.6430 O   0  0  0  0  0  0  0  0  0  0  0  0
    6.3000   13.3380   25.7680 C   0  0  0  0  0  0  0  0  0  0  0  0
    6.6130   14.0950   24.7150 N   0  0  0  0  0  0  0  0  0  0  0  0
    6.8710   12.0950   25.8040 N   0  0  0  0  0  0  0  0  0  0  0  0
    7.7870   11.4920   24.9080 C   0  0  0  0  0  0  0  0  0  0  0  0
    7.5990   10.1530   24.5900 C   0  0  0  0  0  0  0  0  0  0  0  0
    8.4700    9.5230   23.7170 C   0  0  0  0  0  0  0  0  0  0  0  0
    9.5290   10.2150   23.1530 C   0  0  0  0  0  0  0  0  0  0  0  0
    8.8570   12.1890   24.3530 C   0  0  0  0  0  0  0  0  0  0  0  0
    9.7230   11.5540   23.4670 C   0  0  0  0  0  0  0  0  0  0  0  0
   10.7920   12.2820   22.8950 N   0  0  0  0  0  0  0  0  0  0  0  0
   11.5160   13.2770   23.4650 C   0  0  0  0  0  0  0  0  0  0  0  0
   11.5180   13.4890   24.6750 O   0  0  0  0  0  0  0  0  0  0  0  0
   12.3030   14.1220   22.5090 C   0  0  0  0  0  0  0  0  0  0  0  0
 14 12  1  0
 13 12  2  0
 12 11  1  0
 11 10  1  0
 10  8  1  0
  8  7  2  0
  7  6  1  0
  6  5  2  0
  5  4  1  0
  4  2  1  0
  3  2  1  0
  2  1  2  0
  9  5  1  0
 10  9  2  0
M  END
>  <smiles>  (51) 
CC(=O)Nc1cccc(NC(N)=O)c1

>  <inchikey>  (51) 
GVNXANNAMKHSRF-UHFFFAOYSA-N

>  <alias>  (51) 
A2454a

$$$$
A2513a
     RDKit          3D

 14 15  0  0  0  0  0  0  0  0999 V2000
   13.5330    9.2550   25.4940 O   0  0  0  0  0  0  0  0  0  0  0  0
   12.6460   10.0500   25.1160 C   0  0  0  0  0  0  0  0  0  0  0  0
   11.2590    9.9900   25.2570 N   0  0  0  0  0  0  0  0  0  0  0  0
   10.6150   11.0210   24.5880 C   0  0  0  0  0  0  0  0  0  0  0  0
    9.2650   11.3600   24.5440 C   0  0  0  0  0  0  0  0  0  0  0  0
    8.0950   10.3630   25.3480 Cl  0  0  0  0  0  0  0  0  0  0  0  0
    8.8470   12.5070   23.8910 C   0  0  0  0  0  0  0  0  0  0  0  0
    9.7800   13.3220   23.2690 C   0  0  0  0  0  0  0  0  0  0  0  0
   12.8640   11.2820   24.2790 C   0  0  0  0  0  0  0  0  0  0  0  0
   13.8730   11.8010   24.0410 O   0  0  0  0  0  0  0  0  0  0  0  0
   11.5780   11.8260   23.9600 C   0  0  0  0  0  0  0  0  0  0  0  0
   11.1340   12.9790   23.2760 C   0  0  0  0  0  0  0  0  0  0  0  0
   12.1300   13.6790   22.6370 O   0  0  0  0  0  0  0  0  0  0  0  0
   11.7490   14.6470   21.6540 C   0  0  0  0  0  0  0  0  0  0  0  0
 14 13  1  0
 13 12  1  0
 12  8  2  0
  8  7  1  0
  7  5  2  0
  6  5  1  0
  5  4  1  0
  4 11  2  0
 12 11  1  0
 11  9  1  0
 10  9  2  0
  9  2  1  0
  2  1  2  0
  3  2  1  0
  4  3  1  0
M  END
>  <smiles>  (52) 
COc1ccc(Cl)c2c1C(=O)C(=O)N2

>  <inchikey>  (52) 
DVVWQQZWRTXTMK-UHFFFAOYSA-N

>  <alias>  (52) 
A2513a

$$$$
A2629a
     RDKit          3D

 18 19  0  0  0  0  0  0  0  0999 V2000
   10.8550   14.7860   22.6500 O   0  0  0  0  0  0  0  0  0  0  0  0
   11.2280   13.7550   22.0930 C   0  0  0  0  0  0  0  0  0  0  0  0
   10.8670   12.4920   22.4900 N   0  0  0  0  0  0  0  0  0  0  0  0
   10.0260   12.1360   23.5760 C   0  0  0  0  0  0  0  0  0  0  0  0
    9.5550   13.0330   24.5360 C   0  0  0  0  0  0  0  0  0  0  0  0
    8.6490   12.6020   25.4940 C   0  0  0  0  0  0  0  0  0  0  0  0
    8.2270   11.2840   25.5220 C   0  0  0  0  0  0  0  0  0  0  0  0
    8.7110   10.3700   24.5960 C   0  0  0  0  0  0  0  0  0  0  0  0
    9.5980   10.7960   23.6170 C   0  0  0  0  0  0  0  0  0  0  0  0
   10.0640   10.0240   22.5870 O   0  0  0  0  0  0  0  0  0  0  0  0
    9.9530    8.6030   22.6960 C   0  0  0  0  0  0  0  0  0  0  0  0
   12.0490   13.7430   20.9940 N   0  0  0  0  0  0  0  0  0  0  0  0
   12.6170   14.8630   20.3470 C   0  0  0  0  0  0  0  0  0  0  0  0
   13.1490   15.9090   21.1000 C   0  0  0  0  0  0  0  0  0  0  0  0
   13.7860   16.9540   20.5640 N   0  0  0  0  0  0  0  0  0  0  0  0
   13.9050   16.9850   19.2320 C   0  0  0  0  0  0  0  0  0  0  0  0
   13.4010   16.0070   18.3990 C   0  0  0  0  0  0  0  0  0  0  0  0
   12.7440   14.9290   18.9670 C   0  0  0  0  0  0  0  0  0  0  0  0
 11 10  1  0
 10  9  1  0
  9  8  1  0
  8  7  2  0
  7  6  1  0
  6  5  2  0
  5  4  1  0
  9  4  2  0
  4  3  1  0
  3  2  1  0
  2  1  2  0
 12  2  1  0
 13 12  1  0
 13 18  2  0
 18 17  1  0
 17 16  2  0
 16 15  1  0
 15 14  2  0
 14 13  1  0
M  END
>  <smiles>  (53) 
COc1ccccc1NC(=O)Nc1cccnc1

>  <inchikey>  (53) 
GXPNSFDRGMRUJM-UHFFFAOYSA-N

>  <alias>  (53) 
A2629a

$$$$
A2846a
     RDKit          3D

 20 22  0  0  0  0  0  0  0  0999 V2000
   10.2800   14.1940   24.6720 O   0  0  0  0  0  0  0  0  0  0  0  0
   10.3520   13.3380   23.7910 C   0  0  0  0  0  0  0  0  0  0  0  0
    9.5840   12.0480   23.9080 C   0  0  0  0  0  0  0  0  0  0  0  0
    9.9420   10.9660   23.2140 N   0  0  0  0  0  0  0  0  0  0  0  0
    8.4760   11.7600   24.7700 C   0  0  0  0  0  0  0  0  0  0  0  0
    8.2090   10.4010   24.5590 C   0  0  0  0  0  0  0  0  0  0  0  0
    7.2280    9.7310   25.2760 C   0  0  0  0  0  0  0  0  0  0  0  0
    6.4980   10.4500   26.2140 C   0  0  0  0  0  0  0  0  0  0  0  0
    6.7430   11.8000   26.4240 C   0  0  0  0  0  0  0  0  0  0  0  0
    7.7230   12.4640   25.7050 C   0  0  0  0  0  0  0  0  0  0  0  0
    9.0920    9.9690   23.6140 N   0  0  0  0  0  0  0  0  0  0  0  0
    9.1980    8.6470   23.0260 C   0  0  0  0  0  0  0  0  0  0  0  0
   11.1030   13.4660   22.6980 N   0  0  0  0  0  0  0  0  0  0  0  0
   12.0910   14.5240   22.5610 C   0  0  0  0  0  0  0  0  0  0  0  0
   12.3860   14.8450   21.1130 C   0  0  0  0  0  0  0  0  0  0  0  0
   11.2600   15.5580   20.4330 C   0  0  0  0  0  0  0  0  0  0  0  0
   10.6040   16.6180   21.0290 N   0  0  0  0  0  0  0  0  0  0  0  0
    9.7260   16.9670   20.1640 C   0  0  0  0  0  0  0  0  0  0  0  0
    9.7250   16.2530   19.0180 O   0  0  0  0  0  0  0  0  0  0  0  0
   10.7290   15.3500   19.2210 C   0  0  0  0  0  0  0  0  0  0  0  0
 12 11  1  0
 11  4  1  0
  4  3  2  0
  3  2  1  0
  2  1  2  0
 13  2  1  0
 14 13  1  0
 15 14  1  0
 16 15  1  0
 16 20  2  0
 20 19  1  0
 19 18  1  0
 18 17  2  0
 17 16  1  0
  5  3  1  0
  5 10  2  0
 10  9  1  0
  9  8  2  0
  8  7  1  0
  7  6  2  0
  6  5  1  0
 11  6  1  0
M  END
>  <smiles>  (54) 
Cn1nc(C(=O)NCCc2cocn2)c2ccccc21

>  <inchikey>  (54) 
ONGQCMNCDUWDOR-UHFFFAOYSA-N

>  <alias>  (54) 
A2846a

$$$$
A2972a
     RDKit          3D

 19 21  0  0  0  0  0  0  0  0999 V2000
   11.0450   13.9570   24.5530 O   0  0  0  0  0  0  0  0  0  0  0  0
   10.9000   13.1160   23.6690 C   0  0  0  0  0  0  0  0  0  0  0  0
   10.0430   11.8880   23.9120 C   0  0  0  0  0  0  0  0  0  0  0  0
   10.2800   10.7670   23.2370 N   0  0  0  0  0  0  0  0  0  0  0  0
    8.9530   11.7070   24.8410 C   0  0  0  0  0  0  0  0  0  0  0  0
    8.5620   10.3720   24.6630 C   0  0  0  0  0  0  0  0  0  0  0  0
    7.5330    9.8100   25.4050 C   0  0  0  0  0  0  0  0  0  0  0  0
    6.8890   10.6000   26.3460 C   0  0  0  0  0  0  0  0  0  0  0  0
    7.2620   11.9220   26.5340 C   0  0  0  0  0  0  0  0  0  0  0  0
    8.2880   12.4850   25.7880 C   0  0  0  0  0  0  0  0  0  0  0  0
    9.3890    9.8410   23.7190 N   0  0  0  0  0  0  0  0  0  0  0  0
    9.5050    8.4520   23.3030 C   0  0  0  0  0  0  0  0  0  0  0  0
   11.4860   13.1930   22.4680 N   0  0  0  0  0  0  0  0  0  0  0  0
   12.2020   14.3860   22.0470 C   0  0  0  0  0  0  0  0  0  0  0  0
   11.6070   15.0280   20.8330 C   0  0  0  0  0  0  0  0  0  0  0  0
   10.6980   16.0710   20.9490 N   0  0  0  0  0  0  0  0  0  0  0  0
   10.2770   16.3060   19.7140 C   0  0  0  0  0  0  0  0  0  0  0  0
   10.8790   15.5080   18.8220 N   0  0  0  0  0  0  0  0  0  0  0  0
   11.7320   14.6940   19.5200 C   0  0  0  0  0  0  0  0  0  0  0  0
 12 11  1  0
 11  4  1  0
  4  3  2  0
  3  2  1  0
  2  1  2  0
 13  2  1  0
 14 13  1  0
 15 14  1  0
 15 19  2  0
 19 18  1  0
 18 17  1  0
 17 16  2  0
 16 15  1  0
  5  3  1  0
  5 10  2  0
 10  9  1  0
  9  8  2  0
  8  7  1  0
  7  6  2  0
  6  5  1  0
 11  6  1  0
M  END
>  <smiles>  (55) 
Cn1nc(C(=O)NCc2c[nH]cn2)c2ccccc21

>  <inchikey>  (55) 
FWZMGOFFERWMMX-UHFFFAOYSA-N

>  <alias>  (55) 
A2972a

$$$$
A3054a
     RDKit          3D

 19 20  0  0  0  0  0  0  0  0999 V2000
   10.3950   16.8700   19.1650 O   0  0  0  0  0  0  0  0  0  0  0  0
   10.6090   15.6850   19.4330 C   0  0  0  0  0  0  0  0  0  0  0  0
   10.9110   14.7820   18.5150 N   0  0  0  0  0  0  0  0  0  0  0  0
   10.5730   15.1880   20.8670 C   0  0  1  0  0  0  0  0  0  0  0  0
   11.8070   15.6690   21.6440 C   0  0  0  0  0  0  0  0  0  0  0  0
   11.7340   15.3130   23.1320 C   0  0  0  0  0  0  0  0  0  0  0  0
   10.4220   15.7840   23.7350 C   0  0  0  0  0  0  0  0  0  0  0  0
    9.3360   15.7640   21.5610 C   0  0  0  0  0  0  0  0  0  0  0  0
    9.2890   15.2800   22.9430 N   0  0  0  0  0  0  0  0  0  0  0  0
    8.7170   14.0580   23.1680 C   0  0  0  0  0  0  0  0  0  0  0  0
    7.9860   13.5210   22.3440 O   0  0  0  0  0  0  0  0  0  0  0  0
    8.8940   13.5300   24.3980 N   0  0  0  0  0  0  0  0  0  0  0  0
    8.4530   12.2300   24.7130 C   0  0  0  0  0  0  0  0  0  0  0  0
    7.4520   11.9400   25.6280 C   0  0  0  0  0  0  0  0  0  0  0  0
    7.0150   10.6360   25.7660 C   0  0  0  0  0  0  0  0  0  0  0  0
    7.5930    9.6250   25.0100 C   0  0  0  0  0  0  0  0  0  0  0  0
    9.0430   11.2070   23.9750 C   0  0  0  0  0  0  0  0  0  0  0  0
    8.6240    9.8930   24.1180 C   0  0  0  0  0  0  0  0  0  0  0  0
    9.2720    8.7870   23.3200 C   0  0  0  0  0  0  0  0  0  0  0  0
 19 18  1  0
 18 16  2  0
 16 15  1  0
 15 14  2  0
 14 13  1  0
 13 12  1  0
 12 10  1  0
 11 10  2  0
 10  9  1  0
  9  7  1  0
  7  6  1  0
  6  5  1  0
  5  4  1  0
  4  2  1  6
  3  2  1  0
  2  1  2  0
  8  4  1  0
  9  8  1  0
 17 13  2  0
 18 17  1  0
M  END
>  <smiles>  (56) 
Cc1cccc(NC(=O)N2CCC[C@H](C(N)=O)C2)c1

>  <inchikey>  (56) 
PUSSAGYROFRULS-NSHDSACASA-N

>  <alias>  (56) 
A3054a

$$$$
A3176a
     RDKit          3D

 18 19  0  0  0  0  0  0  0  0999 V2000
    9.2050   14.6080   24.1040 O   0  0  0  0  0  0  0  0  0  0  0  0
    9.6580   13.6160   23.5320 C   0  0  0  0  0  0  0  0  0  0  0  0
   10.6900   13.6770   22.6820 N   0  0  0  0  0  0  0  0  0  0  0  0
   11.5280   14.8730   22.6240 C   0  0  1  0  0  0  0  0  0  0  0  0
   12.6850   14.7690   23.6050 C   0  0  0  0  0  0  0  0  0  0  0  0
   12.0310   15.0670   21.1760 C   0  0  0  0  0  0  0  0  0  0  0  0
   10.9050   15.1610   20.3180 O   0  0  0  0  0  0  0  0  0  0  0  0
   11.2400   14.9010   18.9650 C   0  0  0  0  0  0  0  0  0  0  0  0
    9.0640   12.2510   23.7870 C   0  0  0  0  0  0  0  0  0  0  0  0
    7.9700   11.9280   24.6650 C   0  0  0  0  0  0  0  0  0  0  0  0
    7.8250   10.5370   24.5600 C   0  0  0  0  0  0  0  0  0  0  0  0
    8.7800   10.1070   23.6860 N   0  0  0  0  0  0  0  0  0  0  0  0
    9.0830    8.7380   23.2910 C   0  0  0  0  0  0  0  0  0  0  0  0
    9.5470   11.1520   23.2020 N   0  0  0  0  0  0  0  0  0  0  0  0
    7.1660   12.6250   25.5610 C   0  0  0  0  0  0  0  0  0  0  0  0
    6.2450   11.9300   26.3390 C   0  0  0  0  0  0  0  0  0  0  0  0
    6.1070   10.5540   26.2170 C   0  0  0  0  0  0  0  0  0  0  0  0
    6.8940    9.8410   25.3210 C   0  0  0  0  0  0  0  0  0  0  0  0
  8  7  1  0
  7  6  1  0
  6  4  1  0
  4  5  1  1
  4  3  1  0
  3  2  1  0
  2  1  2  0
  9  2  1  0
  9 14  2  0
 14 12  1  0
 13 12  1  0
 12 11  1  0
 11 18  2  0
 18 17  1  0
 17 16  2  0
 16 15  1  0
 15 10  2  0
 10  9  1  0
 11 10  1  0
M  END
>  <smiles>  (57) 
COC[C@H](C)NC(=O)c1nn(C)c2ccccc12

>  <inchikey>  (57) 
UFYNWTYMVOYUIH-VIFPVBQESA-N

>  <alias>  (57) 
A3176a

$$$$
A3178a
     RDKit          3D

 18 20  0  0  0  0  0  0  0  0999 V2000
    9.1660   14.8090   23.8050 O   0  0  0  0  0  0  0  0  0  0  0  0
    9.5120   13.7970   23.1620 C   0  0  0  0  0  0  0  0  0  0  0  0
   10.2650   13.8700   22.0630 N   0  0  0  0  0  0  0  0  0  0  0  0
   10.7510   15.1610   21.5720 C   0  0  2  0  0  0  0  0  0  0  0  0
   10.3040   15.5170   20.1510 C   0  0  0  0  0  0  0  0  0  0  0  0
   11.4120   15.1090   19.3000 O   0  0  0  0  0  0  0  0  0  0  0  0
   12.5720   15.0260   20.1220 C   0  0  0  0  0  0  0  0  0  0  0  0
   12.2390   15.2260   21.5550 C   0  0  0  0  0  0  0  0  0  0  0  0
    9.0180   12.4440   23.5530 C   0  0  0  0  0  0  0  0  0  0  0  0
    9.5300   11.3520   22.9740 N   0  0  0  0  0  0  0  0  0  0  0  0
    7.9730   12.0920   24.4770 C   0  0  0  0  0  0  0  0  0  0  0  0
    7.8930   10.6910   24.4060 C   0  0  0  0  0  0  0  0  0  0  0  0
    8.8230   10.2870   23.4950 N   0  0  0  0  0  0  0  0  0  0  0  0
    9.1880    8.9250   23.1260 C   0  0  0  0  0  0  0  0  0  0  0  0
    6.9920    9.9710   25.1820 C   0  0  0  0  0  0  0  0  0  0  0  0
    6.1420   10.6730   26.0330 C   0  0  0  0  0  0  0  0  0  0  0  0
    6.1940   12.0680   26.0950 C   0  0  0  0  0  0  0  0  0  0  0  0
    7.1090   12.7810   25.3320 C   0  0  0  0  0  0  0  0  0  0  0  0
 14 13  1  0
 13 10  1  0
 10  9  2  0
  9  2  1  0
  2  1  2  0
  3  2  1  0
  4  3  1  6
  4  8  1  0
  8  7  1  0
  7  6  1  0
  6  5  1  0
  5  4  1  0
 11  9  1  0
 11 18  2  0
 18 17  1  0
 17 16  2  0
 16 15  1  0
 15 12  2  0
 12 11  1  0
 13 12  1  0
M  END
>  <smiles>  (58) 
Cn1nc(C(=O)N[C@H]2CCOC2)c2ccccc21

>  <inchikey>  (58) 
OUXJTKZWAHXWFL-VIFPVBQESA-N

>  <alias>  (58) 
A3178a

$$$$
A3181a
     RDKit          3D

 20 22  0  0  0  0  0  0  0  0999 V2000
   10.0590   14.3710   24.6280 O   0  0  0  0  0  0  0  0  0  0  0  0
   10.1800   13.4730   23.7940 C   0  0  0  0  0  0  0  0  0  0  0  0
    9.4030   12.1970   23.9340 C   0  0  0  0  0  0  0  0  0  0  0  0
    9.8110   11.1350   23.2410 N   0  0  0  0  0  0  0  0  0  0  0  0
    8.3140   11.8530   24.8060 C   0  0  0  0  0  0  0  0  0  0  0  0
    8.1030   10.4840   24.5930 C   0  0  0  0  0  0  0  0  0  0  0  0
    7.1280    9.7740   25.2880 C   0  0  0  0  0  0  0  0  0  0  0  0
    6.3740   10.4610   26.2310 C   0  0  0  0  0  0  0  0  0  0  0  0
    6.5850   11.8220   26.4630 C   0  0  0  0  0  0  0  0  0  0  0  0
    7.5290   12.5330   25.7390 C   0  0  0  0  0  0  0  0  0  0  0  0
    9.0130   10.0890   23.6650 N   0  0  0  0  0  0  0  0  0  0  0  0
    9.2240    8.7590   23.1100 C   0  0  0  0  0  0  0  0  0  0  0  0
   11.0000   13.5230   22.7420 N   0  0  0  0  0  0  0  0  0  0  0  0
   12.0520   14.5290   22.6290 C   0  0  0  0  0  0  0  0  0  0  0  0
   12.3670   14.8400   21.1830 C   0  0  0  0  0  0  0  0  0  0  0  0
   11.2780   15.5410   20.5070 N   0  0  0  0  0  0  0  0  0  0  0  0
   10.7360   16.6680   21.0360 N   0  0  0  0  0  0  0  0  0  0  0  0
    9.8510   17.0030   20.1200 C   0  0  0  0  0  0  0  0  0  0  0  0
    9.7970   16.1890   19.0430 N   0  0  0  0  0  0  0  0  0  0  0  0
   10.7060   15.2830   19.3330 C   0  0  0  0  0  0  0  0  0  0  0  0
 12 11  1  0
 11  4  1  0
  4  3  2  0
  3  2  1  0
  2  1  2  0
 13  2  1  0
 14 13  1  0
 15 14  1  0
 16 15  1  0
 16 20  1  0
 20 19  2  0
 19 18  1  0
 18 17  2  0
 17 16  1  0
  5  3  1  0
  5 10  2  0
 10  9  1  0
  9  8  2  0
  8  7  1  0
  7  6  2  0
  6  5  1  0
 11  6  1  0
M  END
>  <smiles>  (59) 
Cn1nc(C(=O)NCCn2cncn2)c2ccccc21

>  <inchikey>  (59) 
UIOOLKZMABSWFR-UHFFFAOYSA-N

>  <alias>  (59) 
A3181a

$$$$
A3181b
     RDKit          3D

 20 22  0  0  0  0  0  0  0  0999 V2000
   23.4590   19.8740   22.7410 O   0  0  0  0  0  0  0  0  0  0  0  0
   22.8550   20.5390   21.8860 C   0  0  0  0  0  0  0  0  0  0  0  0
   23.5570   21.0260   20.6620 C   0  0  0  0  0  0  0  0  0  0  0  0
   22.8780   21.5940   19.6670 N   0  0  0  0  0  0  0  0  0  0  0  0
   24.9660   20.9970   20.3710 C   0  0  0  0  0  0  0  0  0  0  0  0
   25.0760   21.6090   19.1150 C   0  0  0  0  0  0  0  0  0  0  0  0
   26.3130   21.8050   18.5060 C   0  0  0  0  0  0  0  0  0  0  0  0
   27.4470   21.3750   19.1730 C   0  0  0  0  0  0  0  0  0  0  0  0
   27.3570   20.7630   20.4180 C   0  0  0  0  0  0  0  0  0  0  0  0
   26.1150   20.5690   21.0230 C   0  0  0  0  0  0  0  0  0  0  0  0
   23.8090   21.9500   18.7320 N   0  0  0  0  0  0  0  0  0  0  0  0
   23.3800   22.5880   17.4930 C   0  0  0  0  0  0  0  0  0  0  0  0
   21.5750   20.9220   22.0040 N   0  0  0  0  0  0  0  0  0  0  0  0
   20.7060   20.3650   23.0390 C   0  0  0  0  0  0  0  0  0  0  0  0
   20.1270   19.0250   22.5420 C   0  0  0  0  0  0  0  0  0  0  0  0
   19.2540   19.2460   21.3920 N   0  0  0  0  0  0  0  0  0  0  0  0
   19.7310   19.2830   20.1230 N   0  0  0  0  0  0  0  0  0  0  0  0
   18.6340   19.4550   19.4180 C   0  0  0  0  0  0  0  0  0  0  0  0
   17.4980   19.5600   20.1420 N   0  0  0  0  0  0  0  0  0  0  0  0
   17.9370   19.4210   21.3740 C   0  0  0  0  0  0  0  0  0  0  0  0
 12 11  1  0
 11  4  1  0
  4  3  2  0
  3  2  1  0
  2  1  2  0
 13  2  1  0
 14 13  1  0
 15 14  1  0
 16 15  1  0
 16 20  1  0
 20 19  2  0
 19 18  1  0
 18 17  2  0
 17 16  1  0
  5  3  1  0
  5 10  2  0
 10  9  1  0
  9  8  2  0
  8  7  1  0
  7  6  2  0
  6  5  1  0
 11  6  1  0
M  END
>  <smiles>  (60) 
Cn1nc(C(=O)NCCn2cncn2)c2ccccc21

>  <inchikey>  (60) 
UIOOLKZMABSWFR-UHFFFAOYSA-N

>  <alias>  (60) 
A3181b

$$$$
A3186a
     RDKit          3D

 20 21  0  0  0  0  0  0  0  0999 V2000
   10.4420   16.8590   19.2070 O   0  0  0  0  0  0  0  0  0  0  0  0
   10.6280   15.6530   19.3820 C   0  0  0  0  0  0  0  0  0  0  0  0
   10.7590   14.7950   18.3880 N   0  0  0  0  0  0  0  0  0  0  0  0
   10.7620   15.0740   20.7800 C   0  0  1  0  0  0  0  0  0  0  0  0
   11.9130   15.7360   21.5360 C   0  0  0  0  0  0  0  0  0  0  0  0
   12.1080   15.0700   22.8940 C   0  0  0  0  0  0  0  0  0  0  0  0
   10.8440   15.1700   23.6990 C   0  0  0  0  0  0  0  0  0  0  0  0
    9.5290   15.3020   21.6510 C   0  0  0  0  0  0  0  0  0  0  0  0
    9.7030   14.6390   22.9450 N   0  0  0  0  0  0  0  0  0  0  0  0
    8.8690   13.6660   23.3730 C   0  0  0  0  0  0  0  0  0  0  0  0
    7.9930   13.1990   22.6610 O   0  0  0  0  0  0  0  0  0  0  0  0
    9.0680   13.1850   24.7990 C   0  0  0  0  0  0  0  0  0  0  0  0
    8.0380   12.1620   25.2180 C   0  0  0  0  0  0  0  0  0  0  0  0
    8.0020   10.8950   24.6310 C   0  0  0  0  0  0  0  0  0  0  0  0
    8.9020   10.6940   23.6200 O   0  0  0  0  0  0  0  0  0  0  0  0
    9.6830    9.5050   23.6490 C   0  0  0  0  0  0  0  0  0  0  0  0
    7.1000   12.4570   26.2040 C   0  0  0  0  0  0  0  0  0  0  0  0
    6.1530   11.5270   26.5860 C   0  0  0  0  0  0  0  0  0  0  0  0
    6.1250   10.2900   25.9970 C   0  0  0  0  0  0  0  0  0  0  0  0
    7.0540    9.9590   25.0220 C   0  0  0  0  0  0  0  0  0  0  0  0
 16 15  1  0
 15 14  1  0
 14 20  2  0
 20 19  1  0
 19 18  2  0
 18 17  1  0
 17 13  2  0
 14 13  1  0
 13 12  1  0
 12 10  1  0
 11 10  2  0
 10  9  1  0
  9  7  1  0
  7  6  1  0
  6  5  1  0
  5  4  1  0
  4  2  1  6
  3  2  1  0
  2  1  2  0
  8  4  1  0
  9  8  1  0
M  END
>  <smiles>  (61) 
COc1ccccc1CC(=O)N1CCC[C@H](C(N)=O)C1

>  <inchikey>  (61) 
OPWHNDXSBIGKDG-LBPRGKRZSA-N

>  <alias>  (61) 
A3186a

$$$$
A3194a
     RDKit          3D

 19 20  0  0  0  0  0  0  0  0999 V2000
   10.4080   16.6580   19.1920 O   0  0  0  0  0  0  0  0  0  0  0  0
   10.7760   15.5040   19.4290 C   0  0  0  0  0  0  0  0  0  0  0  0
   11.1690   14.6690   18.4810 N   0  0  0  0  0  0  0  0  0  0  0  0
   10.7930   14.9600   20.8500 C   0  0  1  0  0  0  0  0  0  0  0  0
   11.9130   15.6040   21.6900 C   0  0  0  0  0  0  0  0  0  0  0  0
   11.8730   15.1260   23.1450 C   0  0  0  0  0  0  0  0  0  0  0  0
   10.4820   15.3340   23.7450 C   0  0  0  0  0  0  0  0  0  0  0  0
    9.4470   15.2410   21.5240 C   0  0  0  0  0  0  0  0  0  0  0  0
    9.4510   14.7170   22.8950 N   0  0  0  0  0  0  0  0  0  0  0  0
    8.5850   13.7510   23.2750 C   0  0  0  0  0  0  0  0  0  0  0  0
    7.7520   13.2810   22.5050 O   0  0  0  0  0  0  0  0  0  0  0  0
    8.6930   13.2480   24.7040 C   0  0  0  0  0  0  0  0  0  0  0  0
    8.4450   11.7560   24.7740 C   0  0  0  0  0  0  0  0  0  0  0  0
    9.1610   10.8810   23.9680 C   0  0  0  0  0  0  0  0  0  0  0  0
    7.4630   11.2210   25.5850 C   0  0  0  0  0  0  0  0  0  0  0  0
    7.2240    9.8600   25.5450 C   0  0  0  0  0  0  0  0  0  0  0  0
    7.9210    9.0110   24.7740 N   0  0  0  0  0  0  0  0  0  0  0  0
    8.8830    9.5230   23.9850 C   0  0  0  0  0  0  0  0  0  0  0  0
    9.6290    8.5660   23.1090 C   0  0  0  0  0  0  0  0  0  0  0  0
 19 18  1  0
 18 14  2  0
 14 13  1  0
 13 12  1  0
 12 10  1  0
 11 10  2  0
 10  9  1  0
  9  7  1  0
  7  6  1  0
  6  5  1  0
  5  4  1  0
  4  2  1  6
  3  2  1  0
  2  1  2  0
  8  4  1  0
  9  8  1  0
 15 13  2  0
 16 15  1  0
 17 16  2  0
 18 17  1  0
M  END
>  <smiles>  (62) 
Cc1cc(CC(=O)N2CCC[C@H](C(N)=O)C2)ccn1

>  <inchikey>  (62) 
MJQJNTRPVVBPCI-LBPRGKRZSA-N

>  <alias>  (62) 
A3194a

$$$$
A3201a
     RDKit          3D

 20 21  0  0  0  0  0  0  0  0999 V2000
   10.1450   16.2400   19.3030 O   0  0  0  0  0  0  0  0  0  0  0  0
   10.6980   15.1570   19.5140 C   0  0  0  0  0  0  0  0  0  0  0  0
   11.1900   14.4010   18.5440 N   0  0  0  0  0  0  0  0  0  0  0  0
   10.8180   14.6010   20.9230 C   0  0  1  0  0  0  0  0  0  0  0  0
   12.0300   15.1940   21.6610 C   0  0  0  0  0  0  0  0  0  0  0  0
   12.1660   14.6120   23.0700 C   0  0  0  0  0  0  0  0  0  0  0  0
   10.8710   14.7630   23.8700 C   0  0  0  0  0  0  0  0  0  0  0  0
    9.5590   14.8570   21.7580 C   0  0  0  0  0  0  0  0  0  0  0  0
    9.6950   14.3020   23.1100 N   0  0  0  0  0  0  0  0  0  0  0  0
    8.7270   13.5030   23.6110 C   0  0  0  0  0  0  0  0  0  0  0  0
    7.6300   13.3960   23.0800 O   0  0  0  0  0  0  0  0  0  0  0  0
    9.0620   12.7000   24.8520 C   0  0  0  0  0  0  0  0  0  0  0  0
    9.0650   11.2240   24.5320 C   0  0  0  0  0  0  0  0  0  0  0  0
    8.0770   10.3100   24.9440 C   0  0  0  0  0  0  0  0  0  0  0  0
    7.1490   10.8180   25.7890 O   0  0  0  0  0  0  0  0  0  0  0  0
    6.2220    9.9100   26.3910 C   0  0  0  0  0  0  0  0  0  0  0  0
   10.0500   10.7140   23.6980 C   0  0  0  0  0  0  0  0  0  0  0  0
   10.0220    9.3930   23.3100 C   0  0  0  0  0  0  0  0  0  0  0  0
    9.0040    8.6050   23.7620 C   0  0  0  0  0  0  0  0  0  0  0  0
    8.0300    9.0410   24.5700 N   0  0  0  0  0  0  0  0  0  0  0  0
 16 15  1  0
 15 14  1  0
 14 20  2  0
 20 19  1  0
 19 18  2  0
 18 17  1  0
 17 13  2  0
 14 13  1  0
 13 12  1  0
 12 10  1  0
 11 10  2  0
 10  9  1  0
  9  7  1  0
  7  6  1  0
  6  5  1  0
  5  4  1  0
  4  2  1  6
  3  2  1  0
  2  1  2  0
  8  4  1  0
  9  8  1  0
M  END
>  <smiles>  (63) 
COc1ncccc1CC(=O)N1CCC[C@H](C(N)=O)C1

>  <inchikey>  (63) 
DPQNQDXNIINHJH-NSHDSACASA-N

>  <alias>  (63) 
A3201a

$$$$
A3207a
     RDKit          3D

 19 20  0  0  0  0  0  0  0  0999 V2000
    7.8670   13.2600   22.5100 O   0  0  0  0  0  0  0  0  0  0  0  0
    8.7650   13.7120   23.2170 C   0  0  0  0  0  0  0  0  0  0  0  0
    9.5030   14.7790   22.8470 N   0  0  0  0  0  0  0  0  0  0  0  0
   10.5030   15.4670   23.6810 C   0  0  0  0  0  0  0  0  0  0  0  0
   11.8980   15.3280   23.0730 C   0  0  0  0  0  0  0  0  0  0  0  0
   11.9030   15.7520   21.5990 C   0  0  0  0  0  0  0  0  0  0  0  0
    9.4660   15.2780   21.4710 C   0  0  0  0  0  0  0  0  0  0  0  0
   10.8170   15.0140   20.7980 C   0  0  1  0  0  0  0  0  0  0  0  0
   10.7240   15.5090   19.3650 C   0  0  0  0  0  0  0  0  0  0  0  0
   10.3510   16.6550   19.1150 O   0  0  0  0  0  0  0  0  0  0  0  0
   10.9970   14.6210   18.4180 N   0  0  0  0  0  0  0  0  0  0  0  0
    9.1400   13.0660   24.5370 C   0  0  0  0  0  0  0  0  0  0  0  0
    8.7180   11.6180   24.5980 C   0  0  0  0  0  0  0  0  0  0  0  0
    7.7290   11.2140   25.4890 C   0  0  0  0  0  0  0  0  0  0  0  0
    7.3850    9.8630   25.5430 C   0  0  0  0  0  0  0  0  0  0  0  0
    6.4440    9.4250   26.3920 N   0  0  0  0  0  0  0  0  0  0  0  0
    7.9800    8.9320   24.7570 N   0  0  0  0  0  0  0  0  0  0  0  0
    8.9320    9.3480   23.9130 C   0  0  0  0  0  0  0  0  0  0  0  0
    9.3240   10.6610   23.8010 C   0  0  0  0  0  0  0  0  0  0  0  0
 11  9  1  0
 10  9  2  0
  8  9  1  6
  8  6  1  0
  6  5  1  0
  5  4  1  0
  4  3  1  0
  3  2  1  0
  2  1  2  0
 12  2  1  0
 13 12  1  0
 13 19  2  0
 19 18  1  0
 18 17  2  0
 17 15  1  0
 16 15  1  0
 15 14  2  0
 14 13  1  0
  7  3  1  0
  8  7  1  0
M  END
>  <smiles>  (64) 
NC(=O)[C@H]1CCCN(C(=O)Cc2ccnc(N)c2)C1

>  <inchikey>  (64) 
MKGWZERGGHSXDY-JTQLQIEISA-N

>  <alias>  (64) 
A3207a

$$$$
A3223a
     RDKit          3D

 20 22  0  0  0  0  0  0  0  0999 V2000
    6.8440   13.2940   21.9920 O   0  0  0  0  0  0  0  0  0  0  0  0
    7.7380   13.4260   22.7950 C   0  0  0  0  0  0  0  0  0  0  0  0
    8.7250   14.3200   22.6300 N   0  0  0  0  0  0  0  0  0  0  0  0
    9.7430   14.6480   23.6460 C   0  0  0  0  0  0  0  0  0  0  0  0
   11.1600   14.5540   23.0930 C   0  0  0  0  0  0  0  0  0  0  0  0
   11.2950   15.3070   21.7700 C   0  0  0  0  0  0  0  0  0  0  0  0
    8.8860   15.1180   21.4120 C   0  0  0  0  0  0  0  0  0  0  0  0
   10.2370   14.7980   20.7790 C   0  0  1  0  0  0  0  0  0  0  0  0
   10.4280   15.3590   19.3810 C   0  0  0  0  0  0  0  0  0  0  0  0
   10.0390   16.4940   19.0880 O   0  0  0  0  0  0  0  0  0  0  0  0
   11.0220   14.5580   18.5070 N   0  0  0  0  0  0  0  0  0  0  0  0
    7.7110   12.5930   24.0460 C   0  0  0  0  0  0  0  0  0  0  0  0
    6.6440   12.6130   24.9660 C   0  0  0  0  0  0  0  0  0  0  0  0
    5.5010   13.3890   25.2840 C   0  0  0  0  0  0  0  0  0  0  0  0
    4.9010   12.9480   26.3740 N   0  0  0  0  0  0  0  0  0  0  0  0
    5.6160   11.8640   26.7940 N   0  0  0  0  0  0  0  0  0  0  0  0
    6.6630   11.6360   25.9740 C   0  0  0  0  0  0  0  0  0  0  0  0
    7.5910   10.6900   26.1360 N   0  0  0  0  0  0  0  0  0  0  0  0
    8.6210   10.7460   25.2800 C   0  0  0  0  0  0  0  0  0  0  0  0
    8.7290   11.6580   24.2400 C   0  0  0  0  0  0  0  0  0  0  0  0
 11  9  1  0
 10  9  2  0
  8  9  1  6
  8  6  1  0
  6  5  1  0
  5  4  1  0
  4  3  1  0
  3  2  1  0
  2  1  2  0
 12  2  1  0
 12 20  1  0
 20 19  2  0
 19 18  1  0
 18 17  2  0
 17 16  1  0
 16 15  1  0
 15 14  2  0
 14 13  1  0
 13 12  2  0
 17 13  1  0
  7  3  1  0
  8  7  1  0
M  END
>  <smiles>  (65) 
NC(=O)[C@H]1CCCN(C(=O)c2ccnc3[nH]ncc23)C1

>  <inchikey>  (65) 
VGFDAVBEVLFUNW-QMMMGPOBSA-N

>  <alias>  (65) 
A3223a

$$$$
A3229a
     RDKit          3D

 20 21  0  0  0  0  0  0  0  0999 V2000
   10.4180   16.6980   19.2460 O   0  0  0  0  0  0  0  0  0  0  0  0
   10.7610   15.5410   19.4970 C   0  0  0  0  0  0  0  0  0  0  0  0
   11.1000   14.6730   18.5540 N   0  0  0  0  0  0  0  0  0  0  0  0
   10.8020   15.0250   20.9270 C   0  0  1  0  0  0  0  0  0  0  0  0
   11.8660   15.7590   21.7580 C   0  0  0  0  0  0  0  0  0  0  0  0
   11.9740   15.1970   23.1790 C   0  0  0  0  0  0  0  0  0  0  0  0
   10.6200   15.1860   23.8660 C   0  0  0  0  0  0  0  0  0  0  0  0
    9.4710   15.1270   21.6750 C   0  0  0  0  0  0  0  0  0  0  0  0
    9.5910   14.5550   23.0210 N   0  0  0  0  0  0  0  0  0  0  0  0
    8.7360   13.5940   23.4370 C   0  0  0  0  0  0  0  0  0  0  0  0
    7.8150   13.2020   22.7370 O   0  0  0  0  0  0  0  0  0  0  0  0
    8.9600   13.0580   24.8410 C   0  0  0  0  0  0  0  0  0  0  0  0
    8.0040   11.9500   25.2260 C   0  0  0  0  0  0  0  0  0  0  0  0
    8.1590   10.6560   24.7260 C   0  0  0  0  0  0  0  0  0  0  0  0
    9.2550   10.4740   23.9250 O   0  0  0  0  0  0  0  0  0  0  0  0
    9.4400    9.2000   23.3060 C   0  0  0  0  0  0  0  0  0  0  0  0
    6.9810   12.1340   26.1330 C   0  0  0  0  0  0  0  0  0  0  0  0
    6.1360   11.1860   26.5410 N   0  0  0  0  0  0  0  0  0  0  0  0
    6.3000    9.9680   26.0260 C   0  0  0  0  0  0  0  0  0  0  0  0
    7.2940    9.6470   25.1200 C   0  0  0  0  0  0  0  0  0  0  0  0
 16 15  1  0
 15 14  1  0
 14 20  2  0
 20 19  1  0
 19 18  2  0
 18 17  1  0
 17 13  2  0
 14 13  1  0
 13 12  1  0
 12 10  1  0
 11 10  2  0
 10  9  1  0
  9  7  1  0
  7  6  1  0
  6  5  1  0
  5  4  1  0
  4  2  1  6
  3  2  1  0
  2  1  2  0
  8  4  1  0
  9  8  1  0
M  END
>  <smiles>  (66) 
COc1ccncc1CC(=O)N1CCC[C@H](C(N)=O)C1

>  <inchikey>  (66) 
ZKUXUDCBALXGFV-JTQLQIEISA-N

>  <alias>  (66) 
A3229a

$$$$
A3306a
     RDKit          3D

 20 22  0  0  0  0  0  0  0  0999 V2000
   10.0480   14.2310   24.9800 O   0  0  0  0  0  0  0  0  0  0  0  0
   10.4810   13.2960   24.3100 C   0  0  0  0  0  0  0  0  0  0  0  0
    9.7180   11.9870   24.2400 C   0  0  0  0  0  0  0  0  0  0  0  0
   10.1120   10.9750   23.4640 N   0  0  0  0  0  0  0  0  0  0  0  0
    8.5870   11.6090   25.0420 C   0  0  0  0  0  0  0  0  0  0  0  0
    8.3430   10.2730   24.7040 C   0  0  0  0  0  0  0  0  0  0  0  0
    7.3430    9.5350   25.3230 C   0  0  0  0  0  0  0  0  0  0  0  0
    6.5620   10.1610   26.2830 C   0  0  0  0  0  0  0  0  0  0  0  0
    6.7750   11.4890   26.6150 C   0  0  0  0  0  0  0  0  0  0  0  0
    7.7850   12.2190   26.0010 C   0  0  0  0  0  0  0  0  0  0  0  0
    9.2690    9.9280   23.7630 N   0  0  0  0  0  0  0  0  0  0  0  0
    9.4830    8.6270   23.1500 C   0  0  0  0  0  0  0  0  0  0  0  0
   11.6840   13.3090   23.7340 N   0  0  0  0  0  0  0  0  0  0  0  0
   11.8930   13.6090   22.3280 C   0  0  0  0  0  0  0  0  0  0  0  0
   12.1780   15.0780   22.0790 C   0  0  0  0  0  0  0  0  0  0  0  0
   11.2600   15.4540   20.9580 C   0  0  0  0  0  0  0  0  0  0  0  0
   11.4040   14.8820   19.6990 N   0  0  0  0  0  0  0  0  0  0  0  0
   10.4060   15.2020   18.9380 C   0  0  0  0  0  0  0  0  0  0  0  0
    9.2410   16.2270   19.6440 S   0  0  0  0  0  0  0  0  0  0  0  0
   10.1620   16.2420   21.0840 C   0  0  0  0  0  0  0  0  0  0  0  0
 12 11  1  0
 11  4  1  0
  4  3  2  0
  3  2  1  0
  2  1  2  0
 13  2  1  0
 14 13  1  0
 15 14  1  0
 16 15  1  0
 16 20  2  0
 20 19  1  0
 19 18  1  0
 18 17  2  0
 17 16  1  0
  5  3  1  0
  5 10  2  0
 10  9  1  0
  9  8  2  0
  8  7  1  0
  7  6  2  0
  6  5  1  0
 11  6  1  0
M  END
>  <smiles>  (67) 
Cn1nc(C(=O)NCCc2cscn2)c2ccccc21

>  <inchikey>  (67) 
WLVBXUMLICFSSW-UHFFFAOYSA-N

>  <alias>  (67) 
A3306a

$$$$
A3579a
     RDKit          3D

 19 20  0  0  0  0  0  0  0  0999 V2000
   11.3650   14.6340   25.0880 O   0  0  0  0  0  0  0  0  0  0  0  0
   11.2550   14.7910   23.8750 C   0  0  0  0  0  0  0  0  0  0  0  0
   12.4530   15.1840   23.0480 C   0  0  0  0  0  0  0  0  0  0  0  0
   12.1230   15.7370   21.6600 C   0  0  0  0  0  0  0  0  0  0  0  0
   11.0900   14.8420   20.9550 C   0  0  2  0  0  0  0  0  0  0  0  0
   10.8270   15.3170   19.5340 C   0  0  0  0  0  0  0  0  0  0  0  0
   10.3240   16.4240   19.3150 O   0  0  0  0  0  0  0  0  0  0  0  0
   11.1350   14.4680   18.5680 N   0  0  0  0  0  0  0  0  0  0  0  0
    9.8060   14.8580   21.7970 C   0  0  0  0  0  0  0  0  0  0  0  0
   10.0770   14.6180   23.2200 N   0  0  0  0  0  0  0  0  0  0  0  0
    8.8920   14.2020   23.9770 C   0  0  0  0  0  0  0  0  0  0  0  0
    8.7520   12.7010   24.1170 C   0  0  0  0  0  0  0  0  0  0  0  0
    7.7270   12.1780   24.9070 C   0  0  0  0  0  0  0  0  0  0  0  0
    6.9610   13.1160   25.5440 O   0  0  0  0  0  0  0  0  0  0  0  0
    5.9820   12.6640   26.4950 C   0  0  0  0  0  0  0  0  0  0  0  0
    9.5920   11.8080   23.4510 C   0  0  0  0  0  0  0  0  0  0  0  0
    9.4000   10.4420   23.5610 C   0  0  0  0  0  0  0  0  0  0  0  0
    8.3940    9.9490   24.3480 C   0  0  0  0  0  0  0  0  0  0  0  0
    7.5490   10.8090   25.0290 C   0  0  0  0  0  0  0  0  0  0  0  0
 15 14  1  0
 14 13  1  0
 13 19  2  0
 19 18  1  0
 18 17  2  0
 17 16  1  0
 16 12  2  0
 13 12  1  0
 12 11  1  0
 11 10  1  0
 10  9  1  0
  9  5  1  0
  5  6  1  6
  8  6  1  0
  7  6  2  0
  5  4  1  0
  4  3  1  0
  3  2  1  0
 10  2  1  0
  2  1  2  0
M  END
>  <smiles>  (68) 
COc1ccccc1CN1C[C@@H](C(N)=O)CCC1=O

>  <inchikey>  (68) 
PBLXCFVVIRAUAX-NSHDSACASA-N

>  <alias>  (68) 
A3579a

$$$$
A3581a
     RDKit          3D

 19 20  0  0  0  0  0  0  0  0999 V2000
   10.3130   16.4450   19.2000 O   0  0  0  0  0  0  0  0  0  0  0  0
   10.9120   15.3720   19.3640 C   0  0  0  0  0  0  0  0  0  0  0  0
   11.2800   14.5950   18.3590 N   0  0  0  0  0  0  0  0  0  0  0  0
   11.2020   14.8310   20.7550 C   0  0  1  0  0  0  0  0  0  0  0  0
   11.9860   15.7360   21.7240 C   0  0  0  0  0  0  0  0  0  0  0  0
   11.7510   15.0670   23.0790 C   0  0  0  0  0  0  0  0  0  0  0  0
    9.9250   14.5440   21.5550 C   0  0  0  0  0  0  0  0  0  0  0  0
   10.3870   14.5230   22.9510 N   0  0  0  0  0  0  0  0  0  0  0  0
    9.6300   14.1090   23.9930 C   0  0  0  0  0  0  0  0  0  0  0  0
   10.0140   14.2030   25.1520 O   0  0  0  0  0  0  0  0  0  0  0  0
    8.2200   13.6400   23.6650 C   0  0  0  0  0  0  0  0  0  0  0  0
    7.6760   12.5980   24.6180 C   0  0  0  0  0  0  0  0  0  0  0  0
    7.9780   11.2470   24.4330 C   0  0  0  0  0  0  0  0  0  0  0  0
    8.8870   10.9900   23.4390 O   0  0  0  0  0  0  0  0  0  0  0  0
    9.3430    9.6390   23.2840 C   0  0  0  0  0  0  0  0  0  0  0  0
    6.7740   12.9390   25.6270 C   0  0  0  0  0  0  0  0  0  0  0  0
    6.1720   11.9620   26.4080 C   0  0  0  0  0  0  0  0  0  0  0  0
    6.4610   10.6320   26.1940 C   0  0  0  0  0  0  0  0  0  0  0  0
    7.3610   10.2660   25.2020 C   0  0  0  0  0  0  0  0  0  0  0  0
 15 14  1  0
 14 13  1  0
 13 19  2  0
 19 18  1  0
 18 17  2  0
 17 16  1  0
 16 12  2  0
 13 12  1  0
 12 11  1  0
 11  9  1  0
 10  9  2  0
  9  8  1  0
  8  6  1  0
  6  5  1  0
  5  4  1  0
  4  2  1  6
  3  2  1  0
  2  1  2  0
  7  4  1  0
  8  7  1  0
M  END
>  <smiles>  (69) 
COc1ccccc1CC(=O)N1CC[C@H](C(N)=O)C1

>  <inchikey>  (69) 
ACVLTQNPXWHBQP-NSHDSACASA-N

>  <alias>  (69) 
A3581a

$$$$
A3587a
     RDKit          3D

 21 22  0  0  0  0  0  0  0  0999 V2000
   10.6910   16.7880   19.2180 O   0  0  0  0  0  0  0  0  0  0  0  0
   10.8870   15.5870   19.4540 C   0  0  0  0  0  0  0  0  0  0  0  0
   11.2350   14.7240   18.5250 N   0  0  0  0  0  0  0  0  0  0  0  0
   10.8140   15.0330   20.8670 C   0  0  1  0  0  0  0  0  0  0  0  0
   11.8280   15.7220   21.7950 C   0  0  0  0  0  0  0  0  0  0  0  0
   11.7580   15.1990   23.2390 C   0  0  0  0  0  0  0  0  0  0  0  0
   10.3220   15.1700   23.7540 C   0  0  0  0  0  0  0  0  0  0  0  0
    9.4180   15.1160   21.4830 C   0  0  0  0  0  0  0  0  0  0  0  0
    9.4320   14.4790   22.8050 N   0  0  0  0  0  0  0  0  0  0  0  0
    8.4180   13.6220   23.1380 C   0  0  0  0  0  0  0  0  0  0  0  0
    7.5970   13.2390   22.3190 O   0  0  0  0  0  0  0  0  0  0  0  0
    8.3320   13.2760   24.4370 N   0  0  0  0  0  0  0  0  0  0  0  0
    7.4630   12.2330   24.8590 C   0  0  0  0  0  0  0  0  0  0  0  0
    6.3640   12.5220   25.6880 C   0  0  0  0  0  0  0  0  0  0  0  0
    6.0510   13.8530   25.8060 O   0  0  0  0  0  0  0  0  0  0  0  0
    4.6710   14.2090   25.7650 C   0  0  0  0  0  0  0  0  0  0  0  0
    7.8020   10.8930   24.6620 C   0  0  0  0  0  0  0  0  0  0  0  0
    9.2140   10.4870   23.7370 Cl  0  0  0  0  0  0  0  0  0  0  0  0
    7.0940    9.8740   25.2610 C   0  0  0  0  0  0  0  0  0  0  0  0
    6.0480   10.1840   26.1120 C   0  0  0  0  0  0  0  0  0  0  0  0
    5.6850   11.5030   26.3360 C   0  0  0  0  0  0  0  0  0  0  0  0
 16 15  1  0
 15 14  1  0
 14 21  2  0
 21 20  1  0
 20 19  2  0
 19 17  1  0
 18 17  1  0
 17 13  2  0
 14 13  1  0
 13 12  1  0
 12 10  1  0
 11 10  2  0
 10  9  1  0
  9  7  1  0
  7  6  1  0
  6  5  1  0
  5  4  1  0
  4  2  1  6
  3  2  1  0
  2  1  2  0
  8  4  1  0
  9  8  1  0
M  END
>  <smiles>  (70) 
COc1cccc(Cl)c1NC(=O)N1CCC[C@H](C(N)=O)C1

>  <inchikey>  (70) 
BAWQVTYFUSCRSF-VIFPVBQESA-N

>  <alias>  (70) 
A3587a

$$$$
A3371a
     RDKit          3D

 21 23  0  0  0  0  0  0  0  0999 V2000
    9.3670   14.5150   23.8750 O   0  0  0  0  0  0  0  0  0  0  0  0
    9.6930   13.5050   23.2580 C   0  0  0  0  0  0  0  0  0  0  0  0
    9.1820   12.1200   23.6820 C   0  0  0  0  0  0  0  0  0  0  0  0
    8.1510   11.7630   24.6350 C   0  0  0  0  0  0  0  0  0  0  0  0
    7.3050   12.4360   25.5090 C   0  0  0  0  0  0  0  0  0  0  0  0
    6.3310   11.7280   26.2040 C   0  0  0  0  0  0  0  0  0  0  0  0
    6.2010   10.3540   26.0460 C   0  0  0  0  0  0  0  0  0  0  0  0
    7.0510    9.6640   25.1960 C   0  0  0  0  0  0  0  0  0  0  0  0
    8.0170   10.3770   24.5000 C   0  0  0  0  0  0  0  0  0  0  0  0
    8.9090    9.9820   23.5530 N   0  0  0  0  0  0  0  0  0  0  0  0
    9.1060    8.6430   23.0210 C   0  0  0  0  0  0  0  0  0  0  0  0
    9.6360   11.0380   23.0550 N   0  0  0  0  0  0  0  0  0  0  0  0
   10.4600   13.5340   22.1660 N   0  0  0  0  0  0  0  0  0  0  0  0
   10.9280   14.7700   21.5470 C   0  0  0  0  0  0  0  0  0  0  0  0
   12.4400   14.8440   21.5050 C   0  0  0  0  0  0  0  0  0  0  0  0
   12.9620   15.9950   20.6980 C   0  0  0  0  0  0  0  0  0  0  0  0
   12.8110   16.0350   19.3270 N   0  0  0  0  0  0  0  0  0  0  0  0
   13.3530   17.1690   18.9520 C   0  0  0  0  0  0  0  0  0  0  0  0
   13.6130   17.1190   21.1070 C   0  0  0  0  0  0  0  0  0  0  0  0
   13.8520   17.8570   19.9850 N   0  0  0  0  0  0  0  0  0  0  0  0
   14.5120   19.1590   19.9260 C   0  0  0  0  0  0  0  0  0  0  0  0
 21 20  1  0
 20 18  1  0
 18 17  2  0
 17 16  1  0
 16 15  1  0
 15 14  1  0
 14 13  1  0
 13  2  1  0
  2  1  2  0
  3  2  1  0
  3 12  2  0
 12 10  1  0
 11 10  1  0
 10  9  1  0
  9  8  1  0
  8  7  2  0
  7  6  1  0
  6  5  2  0
  5  4  1  0
  4  3  1  0
  9  4  2  0
 19 16  2  0
 20 19  1  0
M  END
>  <smiles>  (71) 
Cn1cnc(CCNC(=O)c2nn(C)c3ccccc23)c1

>  <inchikey>  (71) 
NQHLIPQTOQIZAL-UHFFFAOYSA-N

>  <alias>  (71) 
A3371a

$$$$
A3392a
     RDKit          3D

 19 21  0  0  0  0  0  0  0  0999 V2000
   10.1360   13.5680   25.0520 O   0  0  0  0  0  0  0  0  0  0  0  0
   10.0020   12.9170   24.0320 C   0  0  0  0  0  0  0  0  0  0  0  0
    9.1090   11.8270   23.9810 N   0  0  0  0  0  0  0  0  0  0  0  0
    8.0590   11.5990   24.8810 C   0  0  0  0  0  0  0  0  0  0  0  0
    7.3040   12.5180   25.5990 C   0  0  0  0  0  0  0  0  0  0  0  0
    6.2980   12.0490   26.4330 C   0  0  0  0  0  0  0  0  0  0  0  0
    6.0470   10.6940   26.5390 C   0  0  0  0  0  0  0  0  0  0  0  0
    6.8010    9.7850   25.8170 C   0  0  0  0  0  0  0  0  0  0  0  0
    7.8190   10.2330   24.9880 C   0  0  0  0  0  0  0  0  0  0  0  0
    8.7840    9.4680   24.1280 C   0  0  0  0  0  0  0  0  0  0  0  0
    9.5160   10.5610   23.3470 C   0  0  0  0  0  0  0  0  0  0  0  0
   10.6860   13.1290   22.9020 N   0  0  0  0  0  0  0  0  0  0  0  0
   11.5480   14.2950   22.7590 C   0  0  0  0  0  0  0  0  0  0  0  0
   12.0500   14.4520   21.3400 C   0  0  0  0  0  0  0  0  0  0  0  0
   11.0090   15.1710   20.5440 C   0  0  0  0  0  0  0  0  0  0  0  0
   10.3770   16.3030   21.0300 N   0  0  0  0  0  0  0  0  0  0  0  0
    9.5810   16.6430   20.0850 C   0  0  0  0  0  0  0  0  0  0  0  0
    9.6070   15.8520   18.9940 O   0  0  0  0  0  0  0  0  0  0  0  0
   10.5370   14.9090   19.3190 C   0  0  0  0  0  0  0  0  0  0  0  0
  2  1  2  0
 12  2  1  0
 13 12  1  0
 14 13  1  0
 15 14  1  0
 15 19  2  0
 19 18  1  0
 18 17  1  0
 17 16  2  0
 16 15  1  0
  3  2  1  0
  3 11  1  0
 11 10  1  0
 10  9  1  0
  9  8  1  0
  8  7  2  0
  7  6  1  0
  6  5  2  0
  5  4  1  0
  9  4  2  0
  4  3  1  0
M  END
>  <smiles>  (72) 
O=C(NCCc1cocn1)N1CCc2ccccc21

>  <inchikey>  (72) 
CFBYKVAFAXYDRK-UHFFFAOYSA-N

>  <alias>  (72) 
A3392a

$$$$
A3403a
     RDKit          3D

 19 21  0  0  0  0  0  0  0  0999 V2000
   11.0520   14.8910   23.8250 O   0  0  0  0  0  0  0  0  0  0  0  0
   10.8770   14.2460   22.8040 C   0  0  0  0  0  0  0  0  0  0  0  0
   11.7280   14.4760   21.5770 C   0  0  0  0  0  0  0  0  0  0  0  0
   10.9370   15.2690   20.5820 C   0  0  0  0  0  0  0  0  0  0  0  0
   10.3730   16.4730   20.9710 N   0  0  0  0  0  0  0  0  0  0  0  0
    9.7450   16.8700   19.9320 C   0  0  0  0  0  0  0  0  0  0  0  0
    9.8290   16.0590   18.8560 O   0  0  0  0  0  0  0  0  0  0  0  0
   10.6080   15.0350   19.3060 C   0  0  0  0  0  0  0  0  0  0  0  0
    9.9090   13.3250   22.6610 N   0  0  0  0  0  0  0  0  0  0  0  0
    8.9250   12.9530   23.6010 C   0  0  0  0  0  0  0  0  0  0  0  0
    8.2270   13.8670   24.3910 C   0  0  0  0  0  0  0  0  0  0  0  0
    7.2190   13.4430   25.2420 C   0  0  0  0  0  0  0  0  0  0  0  0
    6.8950   12.1010   25.3320 C   0  0  0  0  0  0  0  0  0  0  0  0
    8.5990   11.5870   23.7020 C   0  0  0  0  0  0  0  0  0  0  0  0
    7.5910   11.1560   24.5760 C   0  0  0  0  0  0  0  0  0  0  0  0
    7.5630    9.7250   24.4180 C   0  0  0  0  0  0  0  0  0  0  0  0
    9.1600   10.5610   23.0300 N   0  0  0  0  0  0  0  0  0  0  0  0
    8.4990    9.4590   23.4960 N   0  0  0  0  0  0  0  0  0  0  0  0
    8.8650    8.1680   22.9170 C   0  0  0  0  0  0  0  0  0  0  0  0
 19 18  1  0
 18 16  1  0
 16 15  2  0
 15 13  1  0
 13 12  2  0
 12 11  1  0
 11 10  2  0
 10  9  1  0
  9  2  1  0
  2  1  2  0
  3  2  1  0
  4  3  1  0
  4  8  2  0
  8  7  1  0
  7  6  1  0
  6  5  2  0
  5  4  1  0
 14 10  1  0
 15 14  1  0
 17 14  2  0
 18 17  1  0
M  END
>  <smiles>  (73) 
Cn1cc2cccc(NC(=O)Cc3cocn3)c2n1

>  <inchikey>  (73) 
YEAWWZXWMQIDNB-UHFFFAOYSA-N

>  <alias>  (73) 
A3403a

$$$$
A3408a
     RDKit          3D

 14 14  0  0  0  0  0  0  0  0999 V2000
   10.1880   16.1510   19.1070 O   0  0  0  0  0  0  0  0  0  0  0  0
   10.4360   14.9650   19.3210 C   0  0  0  0  0  0  0  0  0  0  0  0
   10.7050   14.0970   18.3550 N   0  0  0  0  0  0  0  0  0  0  0  0
   10.3570   14.3880   20.7230 C   0  0  1  0  0  0  0  0  0  0  0  0
   11.3360   15.0490   21.6830 C   0  0  0  0  0  0  0  0  0  0  0  0
   11.2450   14.4250   23.0750 C   0  0  0  0  0  0  0  0  0  0  0  0
    9.8110   14.3460   23.5810 C   0  0  0  0  0  0  0  0  0  0  0  0
    8.9810   14.6730   21.3020 C   0  0  0  0  0  0  0  0  0  0  0  0
    8.8630   13.8960   22.5430 N   0  0  0  0  0  0  0  0  0  0  0  0
    7.3210   13.5800   23.0240 S   0  0  0  0  0  0  0  0  0  0  0  0
    6.6620   12.9810   21.9470 O   0  0  0  0  0  0  0  0  0  0  0  0
    7.4030   13.0160   24.2350 O   0  0  0  0  0  0  0  0  0  0  0  0
    6.8060   15.0560   22.8530 C   0  0  0  0  0  0  0  0  0  0  0  0
    6.4490   15.7910   23.7460 C   0  0  0  0  0  0  0  0  0  0  0  0
 14 13  2  0
 13 10  1  0
 11 10  2  0
 12 10  2  0
 10  9  1  0
  9  7  1  0
  7  6  1  0
  6  5  1  0
  5  4  1  0
  4  2  1  6
  3  2  1  0
  2  1  2  0
  8  4  1  0
  9  8  1  0
M  END
>  <smiles>  (74) 
C=CS(=O)(=O)N1CCC[C@H](C(N)=O)C1

>  <inchikey>  (74) 
FSNFOMGLDYESSZ-ZETCQYMHSA-N

>  <alias>  (74) 
A3408a

$$$$
A3417a
     RDKit          3D

 16 17  0  0  0  0  0  0  0  0999 V2000
    7.6620   12.8210   22.7760 O   0  0  0  0  0  0  0  0  0  0  0  0
    8.6400   13.1870   23.4040 C   0  0  0  0  0  0  0  0  0  0  0  0
    9.0980   12.5100   24.4760 N   0  0  0  0  0  0  0  0  0  0  0  0
    8.3850   11.3710   25.0620 C   0  0  0  0  0  0  0  0  0  0  0  0
    9.0560   10.0410   24.7390 C   0  0  0  0  0  0  0  0  0  0  0  0
    9.8050    9.8250   23.4690 C   0  0  0  0  0  0  0  0  0  0  0  0
   10.5560    9.9180   24.7510 C   0  0  0  0  0  0  0  0  0  0  0  0
    9.2740   14.3570   23.0920 N   0  0  0  0  0  0  0  0  0  0  0  0
   10.3780   14.9280   23.8790 C   0  0  0  0  0  0  0  0  0  0  0  0
   11.6970   14.6950   23.1530 C   0  0  0  0  0  0  0  0  0  0  0  0
   11.6290   15.3010   21.7480 C   0  0  0  0  0  0  0  0  0  0  0  0
    9.1540   14.8980   21.7340 C   0  0  0  0  0  0  0  0  0  0  0  0
   10.4560   14.6720   20.9580 C   0  0  1  0  0  0  0  0  0  0  0  0
   10.3570   15.2200   19.5450 C   0  0  0  0  0  0  0  0  0  0  0  0
    9.9440   16.3680   19.3360 O   0  0  0  0  0  0  0  0  0  0  0  0
   10.7250   14.3890   18.5690 N   0  0  0  0  0  0  0  0  0  0  0  0
 16 14  1  0
 15 14  2  0
 13 14  1  6
 13 11  1  0
 11 10  1  0
 10  9  1  0
  9  8  1  0
  8  2  1  0
  2  1  2  0
  3  2  1  0
  4  3  1  0
  5  4  1  0
  5  7  1  0
  7  6  1  0
  6  5  1  0
 12  8  1  0
 13 12  1  0
M  END
>  <smiles>  (75) 
NC(=O)[C@H]1CCCN(C(=O)NCC2CC2)C1

>  <inchikey>  (75) 
FPQQXSDKENBGCM-VIFPVBQESA-N

>  <alias>  (75) 
A3417a

$$$$
A3435a
     RDKit          3D

 16 17  0  0  0  0  0  0  0  0999 V2000
   10.2830   13.7760   24.9000 O   0  0  0  0  0  0  0  0  0  0  0  0
   10.1160   13.0230   23.9410 C   0  0  0  0  0  0  0  0  0  0  0  0
    9.1700   11.8790   24.0550 C   0  0  0  0  0  0  0  0  0  0  0  0
    8.1400   12.0000   24.9860 C   0  0  0  0  0  0  0  0  0  0  0  0
    7.3630   10.9050   25.3220 C   0  0  0  0  0  0  0  0  0  0  0  0
    7.5790    9.6850   24.7100 C   0  0  0  0  0  0  0  0  0  0  0  0
    8.6040    9.5470   23.7800 C   0  0  0  0  0  0  0  0  0  0  0  0
    9.3970   10.6340   23.4540 C   0  0  0  0  0  0  0  0  0  0  0  0
   10.8030   13.1450   22.7950 N   0  0  0  0  0  0  0  0  0  0  0  0
   11.8880   14.1170   22.6830 C   0  0  0  0  0  0  0  0  0  0  0  0
   12.1980   14.4930   21.2490 C   0  0  0  0  0  0  0  0  0  0  0  0
   11.0900   15.2350   20.5690 C   0  0  0  0  0  0  0  0  0  0  0  0
   10.4420   16.3060   21.1800 N   0  0  0  0  0  0  0  0  0  0  0  0
    9.5940   16.6970   20.2990 C   0  0  0  0  0  0  0  0  0  0  0  0
    9.6000   16.0040   19.1420 O   0  0  0  0  0  0  0  0  0  0  0  0
   10.5730   15.0620   19.3460 C   0  0  0  0  0  0  0  0  0  0  0  0
  2  1  2  0
  9  2  1  0
 10  9  1  0
 11 10  1  0
 12 11  1  0
 12 16  2  0
 16 15  1  0
 15 14  1  0
 14 13  2  0
 13 12  1  0
  3  2  1  0
  3  8  2  0
  8  7  1  0
  7  6  2  0
  6  5  1  0
  5  4  2  0
  4  3  1  0
M  END
>  <smiles>  (76) 
O=C(NCCc1cocn1)c1ccccc1

>  <inchikey>  (76) 
INXUYTDTOJRNGX-UHFFFAOYSA-N

>  <alias>  (76) 
A3435a

$$$$
A3436a
     RDKit          3D

 16 17  0  0  0  0  0  0  0  0999 V2000
    9.8530   14.0780   24.5590 O   0  0  0  0  0  0  0  0  0  0  0  0
    9.9480   13.1890   23.7050 C   0  0  0  0  0  0  0  0  0  0  0  0
    9.2540   11.8970   23.8760 C   0  0  0  0  0  0  0  0  0  0  0  0
    8.2030   11.5270   24.7270 C   0  0  0  0  0  0  0  0  0  0  0  0
    7.9810   10.2250   24.5800 N   0  0  0  0  0  0  0  0  0  0  0  0
    9.6790   10.8060   23.2070 N   0  0  0  0  0  0  0  0  0  0  0  0
    8.8990    9.8410   23.6880 N   0  0  0  0  0  0  0  0  0  0  0  0
    9.0710    8.4490   23.2970 C   0  0  0  0  0  0  0  0  0  0  0  0
   10.7550   13.2800   22.6360 N   0  0  0  0  0  0  0  0  0  0  0  0
   11.7860   14.3100   22.5380 C   0  0  0  0  0  0  0  0  0  0  0  0
   12.1130   14.6700   21.1020 C   0  0  0  0  0  0  0  0  0  0  0  0
   10.9650   15.3900   20.4700 C   0  0  0  0  0  0  0  0  0  0  0  0
   10.3300   16.4570   21.1030 N   0  0  0  0  0  0  0  0  0  0  0  0
    9.4430   16.8340   20.2580 C   0  0  0  0  0  0  0  0  0  0  0  0
    9.4140   16.1320   19.1040 O   0  0  0  0  0  0  0  0  0  0  0  0
   10.3990   15.2040   19.2710 C   0  0  0  0  0  0  0  0  0  0  0  0
  8  7  1  0
  7  5  1  0
  5  4  2  0
  4  3  1  0
  3  2  1  0
  2  1  2  0
  9  2  1  0
 10  9  1  0
 11 10  1  0
 12 11  1  0
 12 16  2  0
 16 15  1  0
 15 14  1  0
 14 13  2  0
 13 12  1  0
  6  3  2  0
  7  6  1  0
M  END
>  <smiles>  (77) 
Cn1ncc(C(=O)NCCc2cocn2)n1

>  <inchikey>  (77) 
PBFVVICHKJKWIA-UHFFFAOYSA-N

>  <alias>  (77) 
A3436a

$$$$
A3480a
     RDKit          3D

 21 22  0  0  0  0  0  0  0  0999 V2000
   10.2330   16.5100   19.0590 O   0  0  0  0  0  0  0  0  0  0  0  0
   10.6410   15.3730   19.3280 C   0  0  0  0  0  0  0  0  0  0  0  0
   11.0840   14.5360   18.4080 N   0  0  0  0  0  0  0  0  0  0  0  0
   10.6050   14.8410   20.7500 C   0  0  1  0  0  0  0  0  0  0  0  0
   11.6500   15.5060   21.6750 C   0  0  0  0  0  0  0  0  0  0  0  0
   11.6570   14.7960   23.0300 C   0  0  0  0  0  0  0  0  0  0  0  0
   10.2710   14.8560   23.6710 C   0  0  0  0  0  0  0  0  0  0  0  0
    9.2400   14.9990   21.4160 C   0  0  0  0  0  0  0  0  0  0  0  0
    9.2460   14.3600   22.7370 N   0  0  0  0  0  0  0  0  0  0  0  0
    8.1970   13.5910   23.1310 C   0  0  0  0  0  0  0  0  0  0  0  0
    7.3820   13.2040   22.3220 O   0  0  0  0  0  0  0  0  0  0  0  0
    8.0870   13.3640   24.4750 N   0  0  0  0  0  0  0  0  0  0  0  0
    7.1300   12.5960   25.1810 C   0  0  0  0  0  0  0  0  0  0  0  0
    7.3480   11.2330   25.2970 C   0  0  0  0  0  0  0  0  0  0  0  0
    6.5750   10.4900   26.1700 C   0  0  0  0  0  0  0  0  0  0  0  0
    5.6000   11.1010   26.9400 C   0  0  0  0  0  0  0  0  0  0  0  0
    6.1220   13.1980   25.9280 C   0  0  0  0  0  0  0  0  0  0  0  0
    5.3610   12.4620   26.8300 C   0  0  0  0  0  0  0  0  0  0  0  0
    4.3170   13.1490   27.6890 C   0  0  0  0  0  0  0  0  0  0  0  0
    2.9610   13.0560   27.1490 C   0  0  0  0  0  0  0  0  0  0  0  0
    1.8940   12.9950   26.7530 N   0  0  0  0  0  0  0  0  0  0  0  0
 21 20  3  0
 20 19  1  0
 19 18  1  0
 18 16  2  0
 16 15  1  0
 15 14  2  0
 14 13  1  0
 13 12  1  0
 12 10  1  0
 11 10  2  0
 10  9  1  0
  9  7  1  0
  7  6  1  0
  6  5  1  0
  5  4  1  0
  4  2  1  6
  3  2  1  0
  2  1  2  0
  8  4  1  0
  9  8  1  0
 17 13  2  0
 18 17  1  0
M  END
>  <smiles>  (78) 
N#CCc1cccc(NC(=O)N2CCC[C@H](C(N)=O)C2)c1

>  <inchikey>  (78) 
UDNDCMKCZBQOCR-LBPRGKRZSA-N

>  <alias>  (78) 
A3480a

$$$$
A3483a
     RDKit          3D

 21 22  0  0  0  0  0  0  0  0999 V2000
   10.5050   16.7310   19.1360 O   0  0  0  0  0  0  0  0  0  0  0  0
   10.7960   15.5560   19.4080 C   0  0  0  0  0  0  0  0  0  0  0  0
   11.0860   14.6520   18.4880 N   0  0  0  0  0  0  0  0  0  0  0  0
   10.8210   15.0650   20.8460 C   0  0  1  0  0  0  0  0  0  0  0  0
   11.9330   15.7500   21.6650 C   0  0  0  0  0  0  0  0  0  0  0  0
   11.7570   15.5880   23.1810 C   0  0  0  0  0  0  0  0  0  0  0  0
   10.7630   14.5040   23.5050 C   0  0  0  0  0  0  0  0  0  0  0  0
    9.4610   15.2900   21.5130 C   0  0  0  0  0  0  0  0  0  0  0  0
    9.4520   14.7540   22.8810 N   0  0  0  0  0  0  0  0  0  0  0  0
    8.5050   13.8340   23.2280 C   0  0  0  0  0  0  0  0  0  0  0  0
    7.7480   13.3480   22.4020 O   0  0  0  0  0  0  0  0  0  0  0  0
    8.3450   13.6210   24.5600 N   0  0  0  0  0  0  0  0  0  0  0  0
    7.5030   12.6440   25.1340 C   0  0  0  0  0  0  0  0  0  0  0  0
    6.3600   12.9690   25.8660 C   0  0  0  0  0  0  0  0  0  0  0  0
    5.6440   11.9660   26.5040 C   0  0  0  0  0  0  0  0  0  0  0  0
    6.0450   10.6600   26.4030 C   0  0  0  0  0  0  0  0  0  0  0  0
    7.1580   10.3280   25.6530 C   0  0  0  0  0  0  0  0  0  0  0  0
    7.9060   11.3070   25.0090 C   0  0  0  0  0  0  0  0  0  0  0  0
    9.1070   10.8790   24.2040 C   0  0  0  0  0  0  0  0  0  0  0  0
    9.3270    9.5030   24.3720 O   0  0  0  0  0  0  0  0  0  0  0  0
    9.7120    8.8970   23.1680 C   0  0  0  0  0  0  0  0  0  0  0  0
 21 20  1  0
 20 19  1  0
 19 18  1  0
 18 17  1  0
 17 16  2  0
 16 15  1  0
 15 14  2  0
 14 13  1  0
 18 13  2  0
 13 12  1  0
 12 10  1  0
 11 10  2  0
 10  9  1  0
  9  7  1  0
  7  6  1  0
  6  5  1  0
  5  4  1  0
  4  2  1  6
  3  2  1  0
  2  1  2  0
  8  4  1  0
  9  8  1  0
M  END
>  <smiles>  (79) 
COCc1ccccc1NC(=O)N1CCC[C@H](C(N)=O)C1

>  <inchikey>  (79) 
GUBBGFXTNMOAAR-NSHDSACASA-N

>  <alias>  (79) 
A3483a

$$$$
A3509a
     RDKit          3D

 20 21  0  0  0  0  0  0  0  0999 V2000
   10.5460   16.8320   19.1580 O   0  0  0  0  0  0  0  0  0  0  0  0
   10.9380   15.6930   19.4330 C   0  0  0  0  0  0  0  0  0  0  0  0
   11.0260   14.7260   18.5320 N   0  0  0  0  0  0  0  0  0  0  0  0
   11.2880   15.3050   20.8580 C   0  0  1  0  0  0  0  0  0  0  0  0
   12.1810   16.3730   21.5110 C   0  0  0  0  0  0  0  0  0  0  0  0
   12.4520   16.0540   22.9870 C   0  0  0  0  0  0  0  0  0  0  0  0
   11.1570   15.8630   23.7420 C   0  0  0  0  0  0  0  0  0  0  0  0
   10.0120   15.1290   21.6810 C   0  0  0  0  0  0  0  0  0  0  0  0
   10.3460   14.8350   23.0800 N   0  0  0  0  0  0  0  0  0  0  0  0
   10.0880   13.6850   23.7630 C   0  0  0  0  0  0  0  0  0  0  0  0
   10.1820   13.6310   24.9900 O   0  0  0  0  0  0  0  0  0  0  0  0
    9.7200   12.6110   23.0070 N   0  0  0  0  0  0  0  0  0  0  0  0
    8.9870   11.5130   23.5150 C   0  0  0  0  0  0  0  0  0  0  0  0
    9.2540   10.2290   23.0550 C   0  0  0  0  0  0  0  0  0  0  0  0
    8.5140    9.1580   23.5280 C   0  0  0  0  0  0  0  0  0  0  0  0
    7.5370    9.3520   24.4890 C   0  0  0  0  0  0  0  0  0  0  0  0
    8.0020   11.7160   24.4790 C   0  0  0  0  0  0  0  0  0  0  0  0
    7.2910   10.6260   24.9790 C   0  0  0  0  0  0  0  0  0  0  0  0
    6.3210   10.8220   26.0280 C   0  0  0  0  0  0  0  0  0  0  0  0
    5.5460   10.9430   26.8540 N   0  0  0  0  0  0  0  0  0  0  0  0
 20 19  3  0
 19 18  1  0
 18 16  2  0
 16 15  1  0
 15 14  2  0
 14 13  1  0
 13 12  1  0
 12 10  1  0
 11 10  2  0
 10  9  1  0
  9  7  1  0
  7  6  1  0
  6  5  1  0
  5  4  1  0
  4  2  1  6
  3  2  1  0
  2  1  2  0
  8  4  1  0
  9  8  1  0
 17 13  2  0
 18 17  1  0
M  END
>  <smiles>  (80) 
N#Cc1cccc(NC(=O)N2CCC[C@H](C(N)=O)C2)c1

>  <inchikey>  (80) 
USAPPLNLVADEDO-NSHDSACASA-N

>  <alias>  (80) 
A3509a

$$$$
A3509b
     RDKit          3D

 20 21  0  0  0  0  0  0  0  0999 V2000
   10.5900   16.9290   19.1450 O   0  0  0  0  0  0  0  0  0  0  0  0
   10.9860   15.7870   19.4200 C   0  0  0  0  0  0  0  0  0  0  0  0
   11.0630   14.8090   18.5210 N   0  0  0  0  0  0  0  0  0  0  0  0
   11.3440   15.4070   20.8470 C   0  0  1  0  0  0  0  0  0  0  0  0
   12.2470   16.4770   21.4920 C   0  0  0  0  0  0  0  0  0  0  0  0
   12.5080   16.1880   22.9730 C   0  0  0  0  0  0  0  0  0  0  0  0
   11.1940   15.9930   23.7210 C   0  0  0  0  0  0  0  0  0  0  0  0
   10.0540   15.2400   21.6670 C   0  0  0  0  0  0  0  0  0  0  0  0
   10.3760   14.9590   23.0700 N   0  0  0  0  0  0  0  0  0  0  0  0
   10.1330   13.7930   23.7400 C   0  0  0  0  0  0  0  0  0  0  0  0
   10.2210   13.7280   24.9640 O   0  0  0  0  0  0  0  0  0  0  0  0
    9.7310   12.7310   22.9810 N   0  0  0  0  0  0  0  0  0  0  0  0
    9.0210   11.6130   23.4950 C   0  0  0  0  0  0  0  0  0  0  0  0
    9.3060   10.3270   23.0490 C   0  0  0  0  0  0  0  0  0  0  0  0
    8.5790    9.2520   23.5290 C   0  0  0  0  0  0  0  0  0  0  0  0
    7.5850    9.4440   24.4720 C   0  0  0  0  0  0  0  0  0  0  0  0
    8.0300   11.8120   24.4530 C   0  0  0  0  0  0  0  0  0  0  0  0
    7.3200   10.7220   24.9500 C   0  0  0  0  0  0  0  0  0  0  0  0
    6.3330   10.9200   25.9810 C   0  0  0  0  0  0  0  0  0  0  0  0
    5.5410   11.0410   26.7900 N   0  0  0  0  0  0  0  0  0  0  0  0
 20 19  3  0
 19 18  1  0
 18 16  2  0
 16 15  1  0
 15 14  2  0
 14 13  1  0
 13 12  1  0
 12 10  1  0
 11 10  2  0
 10  9  1  0
  9  7  1  0
  7  6  1  0
  6  5  1  0
  5  4  1  0
  4  2  1  6
  3  2  1  0
  2  1  2  0
  8  4  1  0
  9  8  1  0
 17 13  2  0
 18 17  1  0
M  END
>  <smiles>  (81) 
N#Cc1cccc(NC(=O)N2CCC[C@H](C(N)=O)C2)c1

>  <inchikey>  (81) 
USAPPLNLVADEDO-NSHDSACASA-N

>  <alias>  (81) 
A3509b

$$$$
A3612a
     RDKit          3D

 19 20  0  0  0  0  0  0  0  0999 V2000
    9.0270   10.9370   23.5860 F   0  0  0  0  0  0  0  0  0  0  0  0
    8.0890   11.0840   24.5600 C   0  0  0  0  0  0  0  0  0  0  0  0
    7.3700    9.9870   24.9720 C   0  0  0  0  0  0  0  0  0  0  0  0
    6.4350   10.1550   25.9850 C   0  0  0  0  0  0  0  0  0  0  0  0
    6.2530   11.3930   26.5660 C   0  0  0  0  0  0  0  0  0  0  0  0
    6.9850   12.4890   26.1300 C   0  0  0  0  0  0  0  0  0  0  0  0
    7.9140   12.3500   25.1000 C   0  0  0  0  0  0  0  0  0  0  0  0
    8.6580   13.4250   24.5530 N   0  0  0  0  0  0  0  0  0  0  0  0
    8.5830   13.8220   23.2500 C   0  0  0  0  0  0  0  0  0  0  0  0
    7.7460   13.3770   22.4750 O   0  0  0  0  0  0  0  0  0  0  0  0
    9.4440   14.8100   22.8710 N   0  0  0  0  0  0  0  0  0  0  0  0
   10.5060   15.3970   23.7040 C   0  0  0  0  0  0  0  0  0  0  0  0
   11.8640   15.2650   23.0500 C   0  0  0  0  0  0  0  0  0  0  0  0
   11.8280   15.7510   21.5970 C   0  0  0  0  0  0  0  0  0  0  0  0
    9.3870   15.3460   21.5070 C   0  0  0  0  0  0  0  0  0  0  0  0
   10.7090   15.0710   20.7860 C   0  0  1  0  0  0  0  0  0  0  0  0
   10.6620   15.5960   19.3610 C   0  0  0  0  0  0  0  0  0  0  0  0
   10.3020   16.7560   19.1200 O   0  0  0  0  0  0  0  0  0  0  0  0
   11.0830   14.7600   18.4250 N   0  0  0  0  0  0  0  0  0  0  0  0
 19 17  1  0
 18 17  2  0
 16 17  1  6
 16 14  1  0
 14 13  1  0
 13 12  1  0
 12 11  1  0
 11  9  1  0
 10  9  2  0
  9  8  1  0
  8  7  1  0
  7  6  2  0
  6  5  1  0
  5  4  2  0
  4  3  1  0
  3  2  2  0
  7  2  1  0
  2  1  1  0
 15 11  1  0
 16 15  1  0
M  END
>  <smiles>  (82) 
NC(=O)[C@H]1CCCN(C(=O)Nc2ccccc2F)C1

>  <inchikey>  (82) 
SIJSHILCUHKBHW-VIFPVBQESA-N

>  <alias>  (82) 
A3612a

$$$$
A3616a
     RDKit          3D

 20 21  0  0  0  0  0  0  0  0999 V2000
   10.3020   16.8140   19.0580 O   0  0  0  0  0  0  0  0  0  0  0  0
   10.5710   15.6450   19.3640 C   0  0  0  0  0  0  0  0  0  0  0  0
   10.8120   14.6990   18.4630 N   0  0  0  0  0  0  0  0  0  0  0  0
   10.5960   15.1990   20.8140 C   0  0  1  0  0  0  0  0  0  0  0  0
   11.9660   15.4370   21.4570 C   0  0  0  0  0  0  0  0  0  0  0  0
   11.9480   15.0270   22.9290 C   0  0  0  0  0  0  0  0  0  0  0  0
   10.7760   15.6730   23.6800 C   0  0  0  0  0  0  0  0  0  0  0  0
    9.5130   15.9500   21.5880 C   0  0  0  0  0  0  0  0  0  0  0  0
    9.4890   15.4850   22.9800 N   0  0  0  0  0  0  0  0  0  0  0  0
    8.4510   14.6770   23.3760 C   0  0  0  0  0  0  0  0  0  0  0  0
    7.5740   14.3120   22.5950 O   0  0  0  0  0  0  0  0  0  0  0  0
    8.4360   14.3330   24.6710 N   0  0  0  0  0  0  0  0  0  0  0  0
    7.4930   13.3350   25.1640 C   0  0  0  0  0  0  0  0  0  0  0  0
    7.8130   11.9080   24.7570 C   0  0  0  0  0  0  0  0  0  0  0  0
    6.9950   10.8690   25.2230 C   0  0  0  0  0  0  0  0  0  0  0  0
    5.8740   11.1100   26.2010 C   0  0  0  0  0  0  0  0  0  0  0  0
    8.8890   11.6010   23.9260 C   0  0  0  0  0  0  0  0  0  0  0  0
    9.1430   10.2950   23.5410 C   0  0  0  0  0  0  0  0  0  0  0  0
    8.3060    9.2890   23.9430 C   0  0  0  0  0  0  0  0  0  0  0  0
    7.2500    9.5710   24.7810 C   0  0  0  0  0  0  0  0  0  0  0  0
 16 15  1  0
 15 20  2  0
 20 19  1  0
 19 18  2  0
 18 17  1  0
 17 14  2  0
 15 14  1  0
 14 13  1  0
 13 12  1  0
 12 10  1  0
 11 10  2  0
 10  9  1  0
  9  7  1  0
  7  6  1  0
  6  5  1  0
  5  4  1  0
  4  2  1  6
  3  2  1  0
  2  1  2  0
  8  4  1  0
  9  8  1  0
M  END
>  <smiles>  (83) 
Cc1ccccc1CNC(=O)N1CCC[C@H](C(N)=O)C1

>  <inchikey>  (83) 
XDPSLKIUHCZBTI-ZDUSSCGKSA-N

>  <alias>  (83) 
A3616a

$$$$
A3618a
     RDKit          3D

 23 24  0  0  0  0  0  0  0  0999 V2000
   10.4330   16.6170   19.1150 O   0  0  0  0  0  0  0  0  0  0  0  0
   10.7680   15.4510   19.3790 C   0  0  0  0  0  0  0  0  0  0  0  0
   11.1580   14.6030   18.4330 N   0  0  0  0  0  0  0  0  0  0  0  0
   10.6970   14.9040   20.7990 C   0  0  1  0  0  0  0  0  0  0  0  0
   11.7060   15.5560   21.7790 C   0  0  0  0  0  0  0  0  0  0  0  0
   11.6380   14.8610   23.1420 C   0  0  0  0  0  0  0  0  0  0  0  0
   10.2310   14.9500   23.7350 C   0  0  0  0  0  0  0  0  0  0  0  0
    9.3050   15.0840   21.4180 C   0  0  0  0  0  0  0  0  0  0  0  0
    9.2150   14.4960   22.7650 N   0  0  0  0  0  0  0  0  0  0  0  0
    8.2110   13.6220   23.0710 C   0  0  0  0  0  0  0  0  0  0  0  0
    7.4930   13.1640   22.2060 O   0  0  0  0  0  0  0  0  0  0  0  0
    7.9580   13.4070   24.4070 N   0  0  0  0  0  0  0  0  0  0  0  0
    7.0680   12.4160   24.9250 C   0  0  0  0  0  0  0  0  0  0  0  0
    7.4450   11.1020   24.6460 C   0  0  0  0  0  0  0  0  0  0  0  0
    6.6850   10.0460   25.1400 C   0  0  0  0  0  0  0  0  0  0  0  0
    5.5540   10.2890   25.9030 C   0  0  0  0  0  0  0  0  0  0  0  0
    5.9160   12.6540   25.6760 C   0  0  0  0  0  0  0  0  0  0  0  0
    5.1510   11.5940   26.1690 C   0  0  0  0  0  0  0  0  0  0  0  0
    3.9080   11.7960   26.9840 C   0  0  0  0  0  0  0  0  0  0  0  0
    3.5150   10.9380   27.7830 O   0  0  0  0  0  0  0  0  0  0  0  0
    3.2440   12.9410   26.8100 N   0  0  0  0  0  0  0  0  0  0  0  0
    2.0520   13.2710   27.5940 C   0  0  0  0  0  0  0  0  0  0  0  0
    0.9470   13.7770   26.7400 C   0  0  0  0  0  0  0  0  0  0  0  0
 23 22  1  0
 22 21  1  0
 21 19  1  0
 20 19  2  0
 19 18  1  0
 18 16  2  0
 16 15  1  0
 15 14  2  0
 14 13  1  0
 13 12  1  0
 12 10  1  0
 11 10  2  0
 10  9  1  0
  9  7  1  0
  7  6  1  0
  6  5  1  0
  5  4  1  0
  4  2  1  6
  3  2  1  0
  2  1  2  0
  8  4  1  0
  9  8  1  0
 17 13  2  0
 18 17  1  0
M  END
>  <smiles>  (84) 
CCNC(=O)c1cccc(NC(=O)N2CCC[C@H](C(N)=O)C2)c1

>  <inchikey>  (84) 
AHABGCZYHXNKLQ-LBPRGKRZSA-N

>  <alias>  (84) 
A3618a

$$$$
A3621a
     RDKit          3D

 17 18  0  0  0  0  0  0  0  0999 V2000
    7.8350   13.4490   22.4460 O   0  0  0  0  0  0  0  0  0  0  0  0
    8.9710   13.4150   22.8830 C   0  0  0  0  0  0  0  0  0  0  0  0
    9.9880   14.0370   22.2600 N   0  0  0  0  0  0  0  0  0  0  0  0
    9.7660   14.8320   21.0450 C   0  0  0  0  0  0  0  0  0  0  0  0
   11.1670   15.2970   20.6600 C   0  0  2  0  0  0  0  0  0  0  0  0
   11.7460   14.4070   19.6870 O   0  0  0  0  0  0  0  0  0  0  0  0
   11.9210   15.2980   21.9790 C   0  0  0  0  0  0  0  0  0  0  0  0
   11.3990   14.0530   22.6750 C   0  0  0  0  0  0  0  0  0  0  0  0
    9.3230   12.7430   24.1970 C   0  0  0  0  0  0  0  0  0  0  0  0
    8.2130   11.8840   24.7520 C   0  0  0  0  0  0  0  0  0  0  0  0
    8.2150   10.5170   24.4910 C   0  0  0  0  0  0  0  0  0  0  0  0
    9.1690   10.1170   23.5880 O   0  0  0  0  0  0  0  0  0  0  0  0
    9.3880    8.7300   23.4090 C   0  0  0  0  0  0  0  0  0  0  0  0
    7.2540   12.3900   25.6270 C   0  0  0  0  0  0  0  0  0  0  0  0
    6.3570   11.5490   26.2600 C   0  0  0  0  0  0  0  0  0  0  0  0
    6.3870   10.2020   26.0160 C   0  0  0  0  0  0  0  0  0  0  0  0
    7.3010    9.6770   25.1140 C   0  0  0  0  0  0  0  0  0  0  0  0
 13 12  1  0
 12 11  1  0
 11 17  2  0
 17 16  1  0
 16 15  2  0
 15 14  1  0
 14 10  2  0
 11 10  1  0
 10  9  1  0
  9  2  1  0
  2  1  2  0
  3  2  1  0
  3  8  1  0
  8  7  1  0
  7  5  1  0
  5  6  1  6
  5  4  1  0
  4  3  1  0
M  END
>  <smiles>  (85) 
COc1ccccc1CC(=O)N1CC[C@@H](O)C1

>  <inchikey>  (85) 
MYUHZHXRZFYTPE-LLVKDONJSA-N

>  <alias>  (85) 
A3621a

$$$$
A3623a
     RDKit          3D

 20 21  0  0  0  0  0  0  0  0999 V2000
    7.9600   15.4200   21.7040 O   0  0  0  0  0  0  0  0  0  0  0  0
    6.9530   14.6060   22.2990 S   0  0  0  0  0  0  0  0  0  0  0  0
    6.8980   13.2170   21.9860 O   0  0  0  0  0  0  0  0  0  0  0  0
    5.5230   15.2450   21.8640 N   0  0  0  0  0  0  0  0  0  0  0  0
    4.2810   14.4980   22.0420 C   0  0  0  0  0  0  0  0  0  0  0  0
    3.5960   14.3330   20.7260 C   0  0  0  0  0  0  0  0  0  0  0  0
    2.8350   15.1810   20.1340 N   0  0  0  0  0  0  0  0  0  0  0  0
    2.4720   14.5560   18.9660 C   0  0  0  0  0  0  0  0  0  0  0  0
    3.7790   13.1670   20.0450 O   0  0  0  0  0  0  0  0  0  0  0  0
    3.0380   13.3490   18.8920 C   0  0  0  0  0  0  0  0  0  0  0  0
    3.0890   12.2420   17.9020 C   0  0  0  0  0  0  0  0  0  0  0  0
    7.0700   14.7480   24.0630 C   0  0  0  0  0  0  0  0  0  0  0  0
    8.3500   14.2410   24.7340 C   0  0  1  0  0  0  0  0  0  0  0  0
    8.4260   14.7360   26.1800 C   0  0  0  0  0  0  0  0  0  0  0  0
    8.4480   12.7280   24.6400 C   0  0  0  0  0  0  0  0  0  0  0  0
    7.6670   11.9140   25.4510 C   0  0  0  0  0  0  0  0  0  0  0  0
    7.7820   10.5390   25.3900 C   0  0  0  0  0  0  0  0  0  0  0  0
    8.6690    9.9550   24.5120 C   0  0  0  0  0  0  0  0  0  0  0  0
    9.4370   10.7480   23.6890 C   0  0  0  0  0  0  0  0  0  0  0  0
    9.3290   12.1290   23.7550 C   0  0  0  0  0  0  0  0  0  0  0  0
 11 10  1  0
 10  8  2  0
  8  7  1  0
  7  6  2  0
  6  5  1  0
  5  4  1  0
  4  2  1  0
  3  2  2  0
  2  1  2  0
 12  2  1  0
 13 12  1  0
 13 14  1  1
 15 13  1  0
 15 20  2  0
 20 19  1  0
 19 18  2  0
 18 17  1  0
 17 16  2  0
 16 15  1  0
  9  6  1  0
 10  9  1  0
M  END
>  <smiles>  (86) 
Cc1cnc(CNS(=O)(=O)C[C@@H](C)c2ccccc2)o1

>  <inchikey>  (86) 
ZXLBDYWEYRPSHD-LLVKDONJSA-N

>  <alias>  (86) 
A3623a

$$$$
A3665a
     RDKit          3D

 22 23  0  0  0  0  0  0  0  0999 V2000
   12.1110   14.1720   23.4890 F   0  0  0  0  0  0  0  0  0  0  0  0
   11.6210   15.4470   23.3250 C   0  0  0  0  0  0  0  0  0  0  0  0
   12.4560   16.2290   24.0930 F   0  0  0  0  0  0  0  0  0  0  0  0
   11.7300   15.8550   21.8740 C   0  0  0  0  0  0  0  0  0  0  0  0
   10.7330   15.0900   20.9760 C   0  0  2  0  0  0  0  0  0  0  0  0
   10.7610   15.5830   19.5360 C   0  0  0  0  0  0  0  0  0  0  0  0
   10.4340   16.7410   19.2500 O   0  0  0  0  0  0  0  0  0  0  0  0
   11.1160   14.6930   18.6260 N   0  0  0  0  0  0  0  0  0  0  0  0
    9.3160   15.2100   21.5490 C   0  0  0  0  0  0  0  0  0  0  0  0
   10.1430   15.4990   23.8480 C   0  0  0  0  0  0  0  0  0  0  0  0
    9.2790   14.7400   22.9390 N   0  0  0  0  0  0  0  0  0  0  0  0
    8.4830   13.7100   23.3050 C   0  0  0  0  0  0  0  0  0  0  0  0
    7.6290   13.2550   22.5600 O   0  0  0  0  0  0  0  0  0  0  0  0
    8.7000   13.1770   24.7110 C   0  0  0  0  0  0  0  0  0  0  0  0
    7.7900   12.0280   25.0800 C   0  0  0  0  0  0  0  0  0  0  0  0
    8.0460   10.7390   24.6080 C   0  0  0  0  0  0  0  0  0  0  0  0
    9.1260   10.6360   23.7700 O   0  0  0  0  0  0  0  0  0  0  0  0
    9.5370    9.3350   23.3550 C   0  0  0  0  0  0  0  0  0  0  0  0
    6.7510   12.2030   25.9930 C   0  0  0  0  0  0  0  0  0  0  0  0
    5.9770   11.1340   26.4040 C   0  0  0  0  0  0  0  0  0  0  0  0
    6.2340    9.8770   25.9290 C   0  0  0  0  0  0  0  0  0  0  0  0
    7.2710    9.6650   25.0310 C   0  0  0  0  0  0  0  0  0  0  0  0
 18 17  1  0
 17 16  1  0
 16 22  2  0
 22 21  1  0
 21 20  2  0
 20 19  1  0
 19 15  2  0
 16 15  1  0
 15 14  1  0
 14 12  1  0
 13 12  2  0
 12 11  1  0
 11  9  1  0
  9  5  1  0
  5  6  1  6
  8  6  1  0
  7  6  2  0
  5  4  1  0
  4  2  1  0
  3  2  1  0
  2  1  1  0
 10  2  1  0
 11 10  1  0
M  END
>  <smiles>  (87) 
COc1ccccc1CC(=O)N1C[C@@H](C(N)=O)CC(F)(F)C1

>  <inchikey>  (87) 
DUWCUXLXYUMFLN-NSHDSACASA-N

>  <alias>  (87) 
A3665a

$$$$
A3685a
     RDKit          3D

 20 21  0  0  0  0  0  0  0  0999 V2000
   10.3190   16.2790   19.2040 O   0  0  0  0  0  0  0  0  0  0  0  0
   10.9790   15.2260   19.1990 C   0  0  0  0  0  0  0  0  0  0  0  0
   11.2940   14.5940   18.0630 N   0  0  0  0  0  0  0  0  0  0  0  0
   11.5060   14.6980   20.3400 N   0  0  0  0  0  0  0  0  0  0  0  0
   11.1460   15.1100   21.7060 C   0  0  2  0  0  0  0  0  0  0  0  0
   12.1470   14.6100   22.7250 C   0  0  0  0  0  0  0  0  0  0  0  0
   11.4170   14.7010   24.0550 C   0  0  0  0  0  0  0  0  0  0  0  0
    9.8500   14.4230   22.2270 C   0  0  0  0  0  0  0  0  0  0  0  0
   10.0350   14.3980   23.6830 N   0  0  0  0  0  0  0  0  0  0  0  0
    9.0990   14.1740   24.6310 C   0  0  0  0  0  0  0  0  0  0  0  0
    9.3450   14.2890   25.8280 O   0  0  0  0  0  0  0  0  0  0  0  0
    7.7380   13.7050   24.1480 C   0  0  0  0  0  0  0  0  0  0  0  0
    7.2090   12.5150   24.9280 C   0  0  0  0  0  0  0  0  0  0  0  0
    7.6370   11.2210   24.6280 C   0  0  0  0  0  0  0  0  0  0  0  0
    8.6150   11.1460   23.6820 O   0  0  0  0  0  0  0  0  0  0  0  0
    9.1450    9.8610   23.3710 C   0  0  0  0  0  0  0  0  0  0  0  0
    6.2250   12.6660   25.9020 C   0  0  0  0  0  0  0  0  0  0  0  0
    5.6680   11.5640   26.5330 C   0  0  0  0  0  0  0  0  0  0  0  0
    6.0750   10.2890   26.1960 C   0  0  0  0  0  0  0  0  0  0  0  0
    7.0550   10.1020   25.2280 C   0  0  0  0  0  0  0  0  0  0  0  0
 16 15  1  0
 15 14  1  0
 14 20  2  0
 20 19  1  0
 19 18  2  0
 18 17  1  0
 17 13  2  0
 14 13  1  0
 13 12  1  0
 12 10  1  0
 11 10  2  0
 10  9  1  0
  9  7  1  0
  7  6  1  0
  6  5  1  0
  5  4  1  6
  4  2  1  0
  3  2  1  0
  2  1  2  0
  8  5  1  0
  9  8  1  0
M  END
>  <smiles>  (88) 
COc1ccccc1CC(=O)N1CC[C@@H](NC(N)=O)C1

>  <inchikey>  (88) 
GQYBHVCKCWFZQQ-LLVKDONJSA-N

>  <alias>  (88) 
A3685a

$$$$
A3694a
     RDKit          3D

 20 21  0  0  0  0  0  0  0  0999 V2000
   10.4860   16.6760   19.0220 O   0  0  0  0  0  0  0  0  0  0  0  0
   11.0440   15.5940   19.2180 C   0  0  0  0  0  0  0  0  0  0  0  0
   11.0440   14.6200   18.3240 N   0  0  0  0  0  0  0  0  0  0  0  0
   11.7990   15.3310   20.4990 C   0  0  0  0  0  0  0  0  0  0  0  0
   11.0050   15.6810   21.7170 C   0  0  2  0  0  0  0  0  0  0  0  0
   11.8080   15.3430   22.9900 C   0  0  0  0  0  0  0  0  0  0  0  0
   11.0870   14.2150   23.7010 C   0  0  0  0  0  0  0  0  0  0  0  0
    9.6870   14.9130   21.8150 C   0  0  0  0  0  0  0  0  0  0  0  0
    9.7440   14.2020   23.0930 N   0  0  0  0  0  0  0  0  0  0  0  0
    8.6800   13.5150   23.5390 C   0  0  0  0  0  0  0  0  0  0  0  0
    7.6470   13.4130   22.8880 O   0  0  0  0  0  0  0  0  0  0  0  0
    8.8360   12.9110   24.9220 C   0  0  0  0  0  0  0  0  0  0  0  0
    7.7630   11.8910   25.2260 C   0  0  0  0  0  0  0  0  0  0  0  0
    7.8570   10.6070   24.6940 C   0  0  0  0  0  0  0  0  0  0  0  0
    8.8800   10.4240   23.8020 O   0  0  0  0  0  0  0  0  0  0  0  0
    9.2290    9.1000   23.4300 C   0  0  0  0  0  0  0  0  0  0  0  0
    6.7300   12.1660   26.1150 C   0  0  0  0  0  0  0  0  0  0  0  0
    5.8260   11.1850   26.4780 C   0  0  0  0  0  0  0  0  0  0  0  0
    5.9420    9.9200   25.9600 C   0  0  0  0  0  0  0  0  0  0  0  0
    6.9570    9.6230   25.0620 C   0  0  0  0  0  0  0  0  0  0  0  0
 16 15  1  0
 15 14  1  0
 14 20  2  0
 20 19  1  0
 19 18  2  0
 18 17  1  0
 17 13  2  0
 14 13  1  0
 13 12  1  0
 12 10  1  0
 11 10  2  0
 10  9  1  0
  9  7  1  0
  7  6  1  0
  6  5  1  0
  5  4  1  6
  4  2  1  0
  3  2  1  0
  2  1  2  0
  8  5  1  0
  9  8  1  0
M  END
>  <smiles>  (89) 
COc1ccccc1CC(=O)N1CC[C@@H](CC(N)=O)C1

>  <inchikey>  (89) 
MSPWRYALONZABD-NSHDSACASA-N

>  <alias>  (89) 
A3694a

$$$$
A3706a
     RDKit          3D

 20 21  0  0  0  0  0  0  0  0999 V2000
   10.3140   16.7560   19.0990 O   0  0  0  0  0  0  0  0  0  0  0  0
   10.6230   15.5980   19.4080 C   0  0  0  0  0  0  0  0  0  0  0  0
   10.9240   14.6740   18.5050 N   0  0  0  0  0  0  0  0  0  0  0  0
   10.6440   15.1480   20.8610 C   0  0  1  0  0  0  0  0  0  0  0  0
   11.9820   15.4720   21.5510 C   0  0  0  0  0  0  0  0  0  0  0  0
   11.9810   14.9710   22.9950 C   0  0  0  0  0  0  0  0  0  0  0  0
   10.7770   15.5150   23.7800 C   0  0  0  0  0  0  0  0  0  0  0  0
    9.5560   15.8850   21.6390 C   0  0  0  0  0  0  0  0  0  0  0  0
    9.5140   15.3960   23.0240 N   0  0  0  0  0  0  0  0  0  0  0  0
    8.3440   14.8330   23.4590 C   0  0  0  0  0  0  0  0  0  0  0  0
    7.4080   14.6270   22.6920 O   0  0  0  0  0  0  0  0  0  0  0  0
    8.3100   14.5330   24.7760 N   0  0  0  0  0  0  0  0  0  0  0  0
    7.1340   13.8590   25.3100 C   0  0  0  0  0  0  0  0  0  0  0  0
    7.1570   12.3590   25.1460 C   0  0  0  0  0  0  0  0  0  0  0  0
    6.2780   11.5950   25.8990 C   0  0  0  0  0  0  0  0  0  0  0  0
    6.2830   10.2210   25.7970 C   0  0  0  0  0  0  0  0  0  0  0  0
    7.1900    9.5900   24.9540 C   0  0  0  0  0  0  0  0  0  0  0  0
    8.0600   11.7080   24.3050 C   0  0  0  0  0  0  0  0  0  0  0  0
    8.1190   10.3210   24.2280 C   0  0  0  0  0  0  0  0  0  0  0  0
    9.2240    9.6290   23.4590 C   0  0  0  0  0  0  0  0  0  0  0  0
 20 19  1  0
 19 17  2  0
 17 16  1  0
 16 15  2  0
 15 14  1  0
 14 13  1  0
 13 12  1  0
 12 10  1  0
 11 10  2  0
 10  9  1  0
  9  7  1  0
  7  6  1  0
  6  5  1  0
  5  4  1  0
  4  2  1  6
  3  2  1  0
  2  1  2  0
  8  4  1  0
  9  8  1  0
 18 14  2  0
 19 18  1  0
M  END
>  <smiles>  (90) 
Cc1cccc(CNC(=O)N2CCC[C@H](C(N)=O)C2)c1

>  <inchikey>  (90) 
DVNZCRUHPFYGIQ-ZDUSSCGKSA-N

>  <alias>  (90) 
A3706a

$$$$
A3706b
     RDKit          3D

 20 21  0  0  0  0  0  0  0  0999 V2000
   10.4730   16.8120   19.0570 O   0  0  0  0  0  0  0  0  0  0  0  0
   10.8300   15.6550   19.3610 C   0  0  0  0  0  0  0  0  0  0  0  0
   11.0460   14.7030   18.4570 N   0  0  0  0  0  0  0  0  0  0  0  0
   10.9170   15.2150   20.8130 C   0  0  1  0  0  0  0  0  0  0  0  0
   12.2420   15.6270   21.4690 C   0  0  0  0  0  0  0  0  0  0  0  0
   12.3100   15.1750   22.9350 C   0  0  0  0  0  0  0  0  0  0  0  0
   11.1100   15.6550   23.7410 C   0  0  0  0  0  0  0  0  0  0  0  0
    9.8250   15.8830   21.6410 C   0  0  0  0  0  0  0  0  0  0  0  0
    9.8580   15.3930   23.0230 N   0  0  0  0  0  0  0  0  0  0  0  0
    8.7300   14.7860   23.5030 C   0  0  0  0  0  0  0  0  0  0  0  0
    7.7760   14.5140   22.7760 O   0  0  0  0  0  0  0  0  0  0  0  0
    8.7290   14.4680   24.8100 N   0  0  0  0  0  0  0  0  0  0  0  0
    7.5820   13.7930   25.4020 C   0  0  0  0  0  0  0  0  0  0  0  0
    7.5560   12.2990   25.1710 C   0  0  0  0  0  0  0  0  0  0  0  0
    6.6760   11.5310   25.9110 C   0  0  0  0  0  0  0  0  0  0  0  0
    6.6800   10.1610   25.8050 C   0  0  0  0  0  0  0  0  0  0  0  0
    7.5490    9.5340   24.9310 C   0  0  0  0  0  0  0  0  0  0  0  0
    8.4700   11.6480   24.3440 C   0  0  0  0  0  0  0  0  0  0  0  0
    8.4910   10.2610   24.2240 C   0  0  0  0  0  0  0  0  0  0  0  0
    9.5530    9.5630   23.4070 C   0  0  0  0  0  0  0  0  0  0  0  0
 20 19  1  0
 19 17  2  0
 17 16  1  0
 16 15  2  0
 15 14  1  0
 14 13  1  0
 13 12  1  0
 12 10  1  0
 11 10  2  0
 10  9  1  0
  9  7  1  0
  7  6  1  0
  6  5  1  0
  5  4  1  0
  4  2  1  6
  3  2  1  0
  2  1  2  0
  8  4  1  0
  9  8  1  0
 18 14  2  0
 19 18  1  0
M  END
>  <smiles>  (91) 
Cc1cccc(CNC(=O)N2CCC[C@H](C(N)=O)C2)c1

>  <inchikey>  (91) 
DVNZCRUHPFYGIQ-ZDUSSCGKSA-N

>  <alias>  (91) 
A3706b

$$$$
A3546a
     RDKit          3D

 21 22  0  0  0  0  0  0  0  0999 V2000
   10.4140   16.7530   19.2190 O   0  0  0  0  0  0  0  0  0  0  0  0
   10.7250   15.5760   19.4580 C   0  0  0  0  0  0  0  0  0  0  0  0
   11.0870   14.7240   18.5210 N   0  0  0  0  0  0  0  0  0  0  0  0
   10.7600   15.0430   20.8810 C   0  0  1  0  0  0  0  0  0  0  0  0
   11.9090   15.6740   21.6870 C   0  0  0  0  0  0  0  0  0  0  0  0
   11.9380   15.1890   23.1440 C   0  0  0  0  0  0  0  0  0  0  0  0
   10.5680   15.3020   23.8010 C   0  0  0  0  0  0  0  0  0  0  0  0
    9.4330   15.2410   21.6180 C   0  0  0  0  0  0  0  0  0  0  0  0
    9.5330   14.6700   22.9660 N   0  0  0  0  0  0  0  0  0  0  0  0
    8.7640   13.6240   23.3400 C   0  0  0  0  0  0  0  0  0  0  0  0
    7.8820   13.1790   22.6210 O   0  0  0  0  0  0  0  0  0  0  0  0
    9.0590   13.0370   24.7110 C   0  0  0  0  0  0  0  0  0  0  0  0
    8.0600   11.9880   25.1390 C   0  0  0  0  0  0  0  0  0  0  0  0
    8.1620   10.6770   24.6720 C   0  0  0  0  0  0  0  0  0  0  0  0
    9.1950   10.4620   23.7940 O   0  0  0  0  0  0  0  0  0  0  0  0
    9.4500    9.1220   23.3610 C   0  0  0  0  0  0  0  0  0  0  0  0
    7.0700   12.2940   26.0710 C   0  0  0  0  0  0  0  0  0  0  0  0
    6.2120   11.3070   26.4820 C   0  0  0  0  0  0  0  0  0  0  0  0
    5.1760   11.6610   27.2880 F   0  0  0  0  0  0  0  0  0  0  0  0
    6.2970   10.0130   26.0460 C   0  0  0  0  0  0  0  0  0  0  0  0
    7.2860    9.6950   25.1270 C   0  0  0  0  0  0  0  0  0  0  0  0
 16 15  1  0
 15 14  1  0
 14 21  2  0
 21 20  1  0
 20 18  2  0
 19 18  1  0
 18 17  1  0
 17 13  2  0
 14 13  1  0
 13 12  1  0
 12 10  1  0
 11 10  2  0
 10  9  1  0
  9  7  1  0
  7  6  1  0
  6  5  1  0
  5  4  1  0
  4  2  1  6
  3  2  1  0
  2  1  2  0
  8  4  1  0
  9  8  1  0
M  END
>  <smiles>  (92) 
COc1ccc(F)cc1CC(=O)N1CCC[C@H](C(N)=O)C1

>  <inchikey>  (92) 
OAXWWUQUJMBBQP-JTQLQIEISA-N

>  <alias>  (92) 
A3546a

$$$$
A3548a
     RDKit          3D

 20 21  0  0  0  0  0  0  0  0999 V2000
   10.6250   16.7900   19.1500 O   0  0  0  0  0  0  0  0  0  0  0  0
   10.9080   15.6070   19.3450 C   0  0  0  0  0  0  0  0  0  0  0  0
   11.1410   14.7590   18.3620 N   0  0  0  0  0  0  0  0  0  0  0  0
   11.0090   15.0470   20.7540 C   0  0  1  0  0  0  0  0  0  0  0  0
   11.9860   15.8750   21.6020 C   0  0  0  0  0  0  0  0  0  0  0  0
   12.0270   15.3900   23.0520 C   0  0  0  0  0  0  0  0  0  0  0  0
   10.6320   15.3810   23.6560 C   0  0  0  0  0  0  0  0  0  0  0  0
    9.6320   15.1150   21.4260 C   0  0  0  0  0  0  0  0  0  0  0  0
    9.6910   14.6290   22.8090 N   0  0  0  0  0  0  0  0  0  0  0  0
    8.8890   13.6320   23.2580 C   0  0  0  0  0  0  0  0  0  0  0  0
    8.0090   13.1370   22.5640 O   0  0  0  0  0  0  0  0  0  0  0  0
    9.1110   13.1690   24.6860 C   0  0  0  0  0  0  0  0  0  0  0  0
    8.1930   12.0320   25.0840 C   0  0  0  0  0  0  0  0  0  0  0  0
    8.3730   10.7370   24.5800 C   0  0  0  0  0  0  0  0  0  0  0  0
    9.4480   10.5730   23.7470 O   0  0  0  0  0  0  0  0  0  0  0  0
    9.7000    9.2710   23.2290 C   0  0  0  0  0  0  0  0  0  0  0  0
    7.1870   12.1900   26.0200 C   0  0  0  0  0  0  0  0  0  0  0  0
    6.3930   11.2110   26.4620 N   0  0  0  0  0  0  0  0  0  0  0  0
    6.5790    9.9970   25.9420 C   0  0  0  0  0  0  0  0  0  0  0  0
    7.5460    9.7080   24.9960 C   0  0  0  0  0  0  0  0  0  0  0  0
 16 15  1  0
 15 14  1  0
 14 20  2  0
 20 19  1  0
 19 18  2  0
 18 17  1  0
 17 13  2  0
 14 13  1  0
 13 12  1  0
 12 10  1  0
 11 10  2  0
 10  9  1  0
  9  7  1  0
  7  6  1  0
  6  5  1  0
  5  4  1  0
  4  2  1  6
  3  2  1  0
  2  1  2  0
  8  4  1  0
  9  8  1  0
M  END
>  <smiles>  (93) 
COc1ccncc1CC(=O)N1CCC[C@H](C(N)=O)C1

>  <inchikey>  (93) 
ZKUXUDCBALXGFV-JTQLQIEISA-N

>  <alias>  (93) 
A3548a

$$$$
A3550a
     RDKit          3D

 21 22  0  0  0  0  0  0  0  0999 V2000
   10.6010   16.8050   19.1080 O   0  0  0  0  0  0  0  0  0  0  0  0
   10.9310   15.6420   19.3780 C   0  0  0  0  0  0  0  0  0  0  0  0
   11.1170   14.7180   18.4520 N   0  0  0  0  0  0  0  0  0  0  0  0
   11.0390   15.1730   20.8180 C   0  0  2  0  0  0  0  0  0  0  0  0
    9.6100   14.9960   21.3560 C   0  0  0  0  0  0  0  0  0  0  0  0
   11.8160   16.1940   21.6860 C   0  0  0  0  0  0  0  0  0  0  0  0
   11.2190   16.3410   23.0950 C   0  0  0  0  0  0  0  0  0  0  0  0
   10.6630   15.0230   23.6330 C   0  0  2  0  0  0  0  0  0  0  0  0
   11.7630   13.9790   23.8280 C   0  0  0  0  0  0  0  0  0  0  0  0
    9.5840   14.5240   22.7500 N   0  0  0  0  0  0  0  0  0  0  0  0
    8.5350   13.7560   23.1690 C   0  0  0  0  0  0  0  0  0  0  0  0
    7.6510   13.4090   22.3890 O   0  0  0  0  0  0  0  0  0  0  0  0
    8.4870   13.3690   24.6360 C   0  0  0  0  0  0  0  0  0  0  0  0
    7.5090   12.2540   24.9170 C   0  0  0  0  0  0  0  0  0  0  0  0
    7.7770   10.9380   24.5200 C   0  0  0  0  0  0  0  0  0  0  0  0
    8.8760   10.7620   23.7090 O   0  0  0  0  0  0  0  0  0  0  0  0
    9.2310    9.4180   23.3570 C   0  0  0  0  0  0  0  0  0  0  0  0
    6.3690   12.4920   25.6900 C   0  0  0  0  0  0  0  0  0  0  0  0
    5.5410   11.4490   26.0840 C   0  0  0  0  0  0  0  0  0  0  0  0
    5.8340   10.1680   25.7170 C   0  0  0  0  0  0  0  0  0  0  0  0
    6.9470    9.9020   24.9260 C   0  0  0  0  0  0  0  0  0  0  0  0
 17 16  1  0
 16 15  1  0
 15 21  2  0
 21 20  1  0
 20 19  2  0
 19 18  1  0
 18 14  2  0
 15 14  1  0
 14 13  1  0
 13 11  1  0
 12 11  2  0
 11 10  1  0
 10  5  1  0
  5  4  1  0
  4  2  1  6
  3  2  1  0
  2  1  2  0
  6  4  1  0
  7  6  1  0
  8  7  1  0
 10  8  1  0
  8  9  1  6
M  END
>  <smiles>  (94) 
COc1ccccc1CC(=O)N1C[C@@H](C(N)=O)CC[C@@H]1C

>  <inchikey>  (94) 
XJRJYHVAUXLXKS-AAEUAGOBSA-N

>  <alias>  (94) 
A3550a

$$$$
A3557a
     RDKit          3D

 22 23  0  0  0  0  0  0  0  0999 V2000
   10.3390   16.6760   19.1110 O   0  0  0  0  0  0  0  0  0  0  0  0
   10.7120   15.5210   19.3580 C   0  0  0  0  0  0  0  0  0  0  0  0
   10.9450   14.6160   18.4180 N   0  0  0  0  0  0  0  0  0  0  0  0
   10.8120   15.0190   20.7850 C   0  0  1  0  0  0  0  0  0  0  0  0
   12.0010   15.6350   21.5380 C   0  0  0  0  0  0  0  0  0  0  0  0
   12.0800   15.0840   22.9630 C   0  0  0  0  0  0  0  0  0  0  0  0
   10.7440   15.2580   23.6820 C   0  0  0  0  0  0  0  0  0  0  0  0
    9.4970   15.2340   21.5360 C   0  0  0  0  0  0  0  0  0  0  0  0
    9.6320   14.6980   22.8920 N   0  0  0  0  0  0  0  0  0  0  0  0
    8.8130   13.7110   23.3050 C   0  0  0  0  0  0  0  0  0  0  0  0
    7.8740   13.3080   22.6300 O   0  0  0  0  0  0  0  0  0  0  0  0
    9.1340   13.1300   24.6640 C   0  0  0  0  0  0  0  0  0  0  0  0
    8.0370   12.2140   25.1430 C   0  0  0  0  0  0  0  0  0  0  0  0
    7.0470   12.6700   26.0060 C   0  0  0  0  0  0  0  0  0  0  0  0
    6.1150   11.8020   26.5420 C   0  0  0  0  0  0  0  0  0  0  0  0
    8.0580   10.8590   24.8030 C   0  0  0  0  0  0  0  0  0  0  0  0
    9.0490   10.5080   23.9210 O   0  0  0  0  0  0  0  0  0  0  0  0
    9.2520    9.1160   23.6300 C   0  0  0  0  0  0  0  0  0  0  0  0
    7.1310    9.9850   25.3400 C   0  0  0  0  0  0  0  0  0  0  0  0
    6.1580   10.4640   26.2040 C   0  0  0  0  0  0  0  0  0  0  0  0
    5.2410    9.5450   26.6440 O   0  0  0  0  0  0  0  0  0  0  0  0
    4.1880   10.0030   27.5060 C   0  0  0  0  0  0  0  0  0  0  0  0
 22 21  1  0
 21 20  1  0
 20 15  1  0
 15 14  2  0
 14 13  1  0
 13 12  1  0
 12 10  1  0
 11 10  2  0
 10  9  1  0
  9  7  1  0
  7  6  1  0
  6  5  1  0
  5  4  1  0
  4  2  1  6
  3  2  1  0
  2  1  2  0
  8  4  1  0
  9  8  1  0
 16 13  2  0
 17 16  1  0
 18 17  1  0
 19 16  1  0
 20 19  2  0
M  END
>  <smiles>  (95) 
COc1ccc(CC(=O)N2CCC[C@H](C(N)=O)C2)c(OC)c1

>  <inchikey>  (95) 
QQFWJWWIQVMKHZ-LBPRGKRZSA-N

>  <alias>  (95) 
A3557a

$$$$
A3557b
     RDKit          3D

 22 23  0  0  0  0  0  0  0  0999 V2000
   10.4320   16.7300   19.1100 O   0  0  0  0  0  0  0  0  0  0  0  0
   10.8030   15.5690   19.3440 C   0  0  0  0  0  0  0  0  0  0  0  0
   10.9940   14.6530   18.4000 N   0  0  0  0  0  0  0  0  0  0  0  0
   10.9730   15.0800   20.7720 C   0  0  1  0  0  0  0  0  0  0  0  0
   12.1540   15.7630   21.4870 C   0  0  0  0  0  0  0  0  0  0  0  0
   12.3000   15.2440   22.9200 C   0  0  0  0  0  0  0  0  0  0  0  0
   10.9780   15.3710   23.6830 C   0  0  0  0  0  0  0  0  0  0  0  0
    9.6870   15.2570   21.5800 C   0  0  0  0  0  0  0  0  0  0  0  0
    9.8770   14.7380   22.9360 N   0  0  0  0  0  0  0  0  0  0  0  0
    9.0830   13.7300   23.3710 C   0  0  0  0  0  0  0  0  0  0  0  0
    8.1280   13.3120   22.7140 O   0  0  0  0  0  0  0  0  0  0  0  0
    9.4480   13.1380   24.7220 C   0  0  0  0  0  0  0  0  0  0  0  0
    8.3710   12.2040   25.2250 C   0  0  0  0  0  0  0  0  0  0  0  0
    7.4010   12.6390   26.1220 C   0  0  0  0  0  0  0  0  0  0  0  0
    6.4830   11.7610   26.6660 C   0  0  0  0  0  0  0  0  0  0  0  0
    8.3770   10.8600   24.8570 C   0  0  0  0  0  0  0  0  0  0  0  0
    9.3480   10.5170   23.9540 O   0  0  0  0  0  0  0  0  0  0  0  0
    9.4960    9.1310   23.6150 C   0  0  0  0  0  0  0  0  0  0  0  0
    7.4570    9.9710   25.3970 C   0  0  0  0  0  0  0  0  0  0  0  0
    6.5150   10.4270   26.3060 C   0  0  0  0  0  0  0  0  0  0  0  0
    5.6500    9.4600   26.7760 O   0  0  0  0  0  0  0  0  0  0  0  0
    4.6530    9.8480   27.7250 C   0  0  0  0  0  0  0  0  0  0  0  0
 22 21  1  0
 21 20  1  0
 20 15  1  0
 15 14  2  0
 14 13  1  0
 13 12  1  0
 12 10  1  0
 11 10  2  0
 10  9  1  0
  9  7  1  0
  7  6  1  0
  6  5  1  0
  5  4  1  0
  4  2  1  6
  3  2  1  0
  2  1  2  0
  8  4  1  0
  9  8  1  0
 16 13  2  0
 17 16  1  0
 18 17  1  0
 19 16  1  0
 20 19  2  0
M  END
>  <smiles>  (96) 
COc1ccc(CC(=O)N2CCC[C@H](C(N)=O)C2)c(OC)c1

>  <inchikey>  (96) 
QQFWJWWIQVMKHZ-LBPRGKRZSA-N

>  <alias>  (96) 
A3557b

$$$$
A3564a
     RDKit          3D

 19 20  0  0  0  0  0  0  0  0999 V2000
   12.4680   16.5520   18.4160 O   0  0  0  0  0  0  0  0  0  0  0  0
   12.1680   15.4710   18.9530 C   0  0  0  0  0  0  0  0  0  0  0  0
   11.5700   14.4630   18.2860 N   0  0  0  0  0  0  0  0  0  0  0  0
   12.4820   15.2760   20.4080 C   0  0  0  0  0  0  0  0  0  0  0  0
   13.4630   16.0630   21.0050 C   0  0  0  0  0  0  0  0  0  0  0  0
   13.8000   15.9770   22.2960 N   0  0  0  0  0  0  0  0  0  0  0  0
   13.1530   15.0770   23.0430 C   0  0  0  0  0  0  0  0  0  0  0  0
   11.8160   14.3530   21.2090 C   0  0  0  0  0  0  0  0  0  0  0  0
   12.1510   14.2450   22.5560 C   0  0  0  0  0  0  0  0  0  0  0  0
   11.4750   13.2770   23.4750 C   0  0  0  0  0  0  0  0  0  0  0  0
   12.1170   12.6680   24.3210 O   0  0  0  0  0  0  0  0  0  0  0  0
   10.1310   13.1380   23.3290 N   0  0  0  0  0  0  0  0  0  0  0  0
    9.2260   12.3880   24.1370 C   0  0  0  0  0  0  0  0  0  0  0  0
    9.1610   10.9840   24.0130 C   0  0  0  0  0  0  0  0  0  0  0  0
   10.0740   10.2050   23.1030 C   0  0  0  0  0  0  0  0  0  0  0  0
    8.3740   13.0690   25.0110 C   0  0  0  0  0  0  0  0  0  0  0  0
    7.4450   12.3580   25.7540 C   0  0  0  0  0  0  0  0  0  0  0  0
    7.3560   10.9870   25.6250 C   0  0  0  0  0  0  0  0  0  0  0  0
    8.2050   10.3100   24.7720 C   0  0  0  0  0  0  0  0  0  0  0  0
 15 14  1  0
 14 19  2  0
 19 18  1  0
 18 17  2  0
 17 16  1  0
 16 13  2  0
 14 13  1  0
 13 12  1  0
 12 10  1  0
 11 10  2  0
 10  9  1  0
  9  7  1  0
  7  6  2  0
  6  5  1  0
  5  4  2  0
  4  2  1  0
  3  2  1  0
  2  1  2  0
  8  4  1  0
  9  8  2  0
M  END
>  <smiles>  (97) 
Cc1ccccc1NC(=O)c1cncc(C(N)=O)c1

>  <inchikey>  (97) 
UWNHLJGYVVRCPX-UHFFFAOYSA-N

>  <alias>  (97) 
A3564a

$$$$
A3568a
     RDKit          3D

 20 22  0  0  0  0  0  0  0  0999 V2000
   10.6520   13.9130   24.8910 O   0  0  0  0  0  0  0  0  0  0  0  0
   10.4830   13.1270   23.9780 C   0  0  0  0  0  0  0  0  0  0  0  0
    9.4840   12.0230   24.1280 C   0  0  0  0  0  0  0  0  0  0  0  0
    9.4370   10.7420   23.6310 C   0  0  0  0  0  0  0  0  0  0  0  0
    8.3880   10.0620   24.1820 N   0  0  0  0  0  0  0  0  0  0  0  0
    7.7100   10.8980   25.0370 C   0  0  0  0  0  0  0  0  0  0  0  0
    8.3620   12.1450   25.0310 C   0  0  0  0  0  0  0  0  0  0  0  0
    7.8570   13.1610   25.8320 C   0  0  0  0  0  0  0  0  0  0  0  0
    6.7520   12.9210   26.6280 C   0  0  0  0  0  0  0  0  0  0  0  0
    6.5980   10.6690   25.8280 C   0  0  0  0  0  0  0  0  0  0  0  0
    6.1270   11.6770   26.6580 C   0  0  0  0  0  0  0  0  0  0  0  0
    5.0270   11.3990   27.6420 C   0  0  0  0  0  0  0  0  0  0  0  0
   11.1950   13.1860   22.8480 N   0  0  0  0  0  0  0  0  0  0  0  0
   10.7790   13.9390   21.6890 C   0  0  0  0  0  0  0  0  0  0  0  0
   11.9620   14.4780   20.9130 C   0  0  0  0  0  0  0  0  0  0  0  0
   11.0290   15.4190   20.2650 C   0  0  0  0  0  0  0  0  0  0  0  0
   10.5040   16.4950   20.9460 N   0  0  0  0  0  0  0  0  0  0  0  0
    9.5820   16.9300   20.1750 C   0  0  0  0  0  0  0  0  0  0  0  0
    9.4420   16.2620   19.0220 O   0  0  0  0  0  0  0  0  0  0  0  0
   10.3950   15.3000   19.0990 C   0  0  0  0  0  0  0  0  0  0  0  0
 12 11  1  0
 11  9  1  0
  9  8  2  0
  8  7  1  0
  7  3  1  0
  3  2  1  0
  2  1  2  0
 13  2  1  0
 14 13  1  0
 15 14  1  0
 16 15  1  0
 16 20  2  0
 20 19  1  0
 19 18  1  0
 18 17  2  0
 17 16  1  0
  4  3  2  0
  5  4  1  0
  6  5  1  0
  7  6  2  0
 10  6  1  0
 11 10  2  0
M  END
>  <smiles>  (98) 
Cc1ccc2c(C(=O)NCCc3cocn3)c[nH]c2c1

>  <inchikey>  (98) 
LZYMZWBOIHZTRB-UHFFFAOYSA-N

>  <alias>  (98) 
A3568a

$$$$
A3571b
     RDKit          3D

 21 22  0  0  0  0  0  0  0  0999 V2000
   10.3140   16.6590   19.2440 O   0  0  0  0  0  0  0  0  0  0  0  0
   10.6940   15.5010   19.5050 C   0  0  0  0  0  0  0  0  0  0  0  0
   10.9670   14.5880   18.5690 N   0  0  0  0  0  0  0  0  0  0  0  0
   10.7900   15.0170   20.9410 C   0  0  1  0  0  0  0  0  0  0  0  0
   12.0130   15.6310   21.6400 C   0  0  0  0  0  0  0  0  0  0  0  0
   12.3480   15.0290   23.0160 C   0  0  0  0  0  0  0  0  0  0  0  0
   11.5470   15.4870   24.2290 C   0  0  0  0  0  0  0  0  0  0  0  0
   10.0840   15.7520   24.0380 C   0  0  0  0  0  0  0  0  0  0  0  0
    9.4840   15.3230   21.6530 C   0  0  0  0  0  0  0  0  0  0  0  0
    9.4470   14.8770   23.0460 N   0  0  0  0  0  0  0  0  0  0  0  0
    8.7690   13.7430   23.3470 C   0  0  0  0  0  0  0  0  0  0  0  0
    7.9720   13.2320   22.5720 O   0  0  0  0  0  0  0  0  0  0  0  0
    9.0110   13.1600   24.7270 C   0  0  0  0  0  0  0  0  0  0  0  0
    8.0440   12.0420   25.0640 C   0  0  0  0  0  0  0  0  0  0  0  0
    8.2860   10.7470   24.6130 C   0  0  0  0  0  0  0  0  0  0  0  0
    9.3650   10.6160   23.7800 O   0  0  0  0  0  0  0  0  0  0  0  0
    9.6710    9.3150   23.3030 C   0  0  0  0  0  0  0  0  0  0  0  0
    7.0070   12.2340   25.9800 C   0  0  0  0  0  0  0  0  0  0  0  0
    6.2410   11.1720   26.4270 C   0  0  0  0  0  0  0  0  0  0  0  0
    6.4880    9.9050   25.9710 C   0  0  0  0  0  0  0  0  0  0  0  0
    7.5090    9.6810   25.0530 C   0  0  0  0  0  0  0  0  0  0  0  0
 17 16  1  0
 16 15  1  0
 15 21  2  0
 21 20  1  0
 20 19  2  0
 19 18  1  0
 18 14  2  0
 15 14  1  0
 14 13  1  0
 13 11  1  0
 12 11  2  0
 11 10  1  0
 10  8  1  0
  8  7  1  0
  7  6  1  0
  6  5  1  0
  5  4  1  0
  4  2  1  6
  3  2  1  0
  2  1  2  0
  9  4  1  0
 10  9  1  0
M  END
>  <smiles>  (99) 
COc1ccccc1CC(=O)N1CCCC[C@H](C(N)=O)C1

>  <inchikey>  (99) 
WNIBIMVZSUHHEM-ZDUSSCGKSA-N

>  <alias>  (99) 
A3571b

$$$$
A3849a
     RDKit          3D

 20 21  0  0  0  0  0  0  0  0999 V2000
   10.1420   16.8580   19.0610 O   0  0  0  0  0  0  0  0  0  0  0  0
   10.5860   15.8210   19.5570 C   0  0  0  0  0  0  0  0  0  0  0  0
   11.0170   14.8010   18.8200 N   0  0  0  0  0  0  0  0  0  0  0  0
   10.6340   15.6410   21.0660 C   0  0  2  0  0  0  0  0  0  0  0  0
   12.0760   15.6220   21.5850 C   0  0  0  0  0  0  0  0  0  0  0  0
   12.0900   15.3660   23.0890 C   0  0  0  0  0  0  0  0  0  0  0  0
   11.3960   14.0490   23.4090 C   0  0  0  0  0  0  0  0  0  0  0  0
    9.8710   14.3660   21.4370 C   0  0  0  0  0  0  0  0  0  0  0  0
   10.0350   13.9680   22.8400 N   0  0  0  0  0  0  0  0  0  0  0  0
    9.0160   13.2960   23.4310 C   0  0  0  0  0  0  0  0  0  0  0  0
    7.9650   13.0340   22.8390 O   0  0  0  0  0  0  0  0  0  0  0  0
    9.2720   12.7720   24.8330 C   0  0  0  0  0  0  0  0  0  0  0  0
    8.2870   11.6930   25.2250 C   0  0  0  0  0  0  0  0  0  0  0  0
    8.3150   10.3870   24.7050 C   0  0  0  0  0  0  0  0  0  0  0  0
    9.2890   10.1680   23.8000 O   0  0  0  0  0  0  0  0  0  0  0  0
    9.5390    8.8190   23.3870 C   0  0  0  0  0  0  0  0  0  0  0  0
    7.2920   11.9520   26.1640 C   0  0  0  0  0  0  0  0  0  0  0  0
    6.4130   10.9560   26.5420 C   0  0  0  0  0  0  0  0  0  0  0  0
    6.5340    9.7200   25.9580 C   0  0  0  0  0  0  0  0  0  0  0  0
    7.4690    9.4220   25.0450 N   0  0  0  0  0  0  0  0  0  0  0  0
 16 15  1  0
 15 14  1  0
 14 20  2  0
 20 19  1  0
 19 18  2  0
 18 17  1  0
 17 13  2  0
 14 13  1  0
 13 12  1  0
 12 10  1  0
 11 10  2  0
 10  9  1  0
  9  7  1  0
  7  6  1  0
  6  5  1  0
  5  4  1  0
  4  2  1  6
  3  2  1  0
  2  1  2  0
  8  4  1  0
  9  8  1  0
M  END
>  <smiles>  (100) 
COc1ncccc1CC(=O)N1CCC[C@@H](C(N)=O)C1

>  <inchikey>  (100) 
DPQNQDXNIINHJH-LLVKDONJSA-N

>  <alias>  (100) 
A3849a

$$$$
A3858a
     RDKit          3D

 21 22  0  0  0  0  0  0  0  0999 V2000
   10.1450   16.8860   19.0250 O   0  0  0  0  0  0  0  0  0  0  0  0
   10.5260   15.8250   19.4980 C   0  0  0  0  0  0  0  0  0  0  0  0
   10.8800   14.7860   18.7230 N   0  0  0  0  0  0  0  0  0  0  0  0
   10.5850   15.6400   21.0040 C   0  0  2  0  0  0  0  0  0  0  0  0
   12.0150   15.6020   21.5360 C   0  0  0  0  0  0  0  0  0  0  0  0
   11.9980   15.4030   23.0480 C   0  0  0  0  0  0  0  0  0  0  0  0
   11.1680   14.1860   23.4360 C   0  0  0  0  0  0  0  0  0  0  0  0
    9.7320   14.4510   21.3970 C   0  0  0  0  0  0  0  0  0  0  0  0
    9.8170   14.1600   22.8320 N   0  0  0  0  0  0  0  0  0  0  0  0
    8.7290   13.5430   23.3520 C   0  0  0  0  0  0  0  0  0  0  0  0
    7.7050   13.3210   22.6960 O   0  0  0  0  0  0  0  0  0  0  0  0
    8.9000   13.0040   24.7530 C   0  0  0  0  0  0  0  0  0  0  0  0
    7.7850   12.0310   25.0540 C   0  0  0  0  0  0  0  0  0  0  0  0
    7.8940   10.6990   24.6230 C   0  0  0  0  0  0  0  0  0  0  0  0
    8.9380   10.4500   23.7590 O   0  0  0  0  0  0  0  0  0  0  0  0
    9.1800    9.0860   23.3550 C   0  0  0  0  0  0  0  0  0  0  0  0
    6.7000   12.3630   25.8720 C   0  0  0  0  0  0  0  0  0  0  0  0
    6.3750   14.0150   26.3080 Cl  0  0  0  0  0  0  0  0  0  0  0  0
    5.8170   11.4150   26.3310 C   0  0  0  0  0  0  0  0  0  0  0  0
    5.9780   10.1030   25.9390 C   0  0  0  0  0  0  0  0  0  0  0  0
    7.0110    9.7370   25.0760 C   0  0  0  0  0  0  0  0  0  0  0  0
 16 15  1  0
 15 14  1  0
 14 21  2  0
 21 20  1  0
 20 19  2  0
 19 17  1  0
 18 17  1  0
 17 13  2  0
 14 13  1  0
 13 12  1  0
 12 10  1  0
 11 10  2  0
 10  9  1  0
  9  7  1  0
  7  6  1  0
  6  5  1  0
  5  4  1  0
  4  2  1  6
  3  2  1  0
  2  1  2  0
  8  4  1  0
  9  8  1  0
M  END
>  <smiles>  (101) 
COc1cccc(Cl)c1CC(=O)N1CCC[C@@H](C(N)=O)C1

>  <inchikey>  (101) 
NHPQEFHMDYOTOA-SNVBAGLBSA-N

>  <alias>  (101) 
A3858a

$$$$
A3858b
     RDKit          3D

 21 22  0  0  0  0  0  0  0  0999 V2000
   10.2510   16.8980   19.0220 O   0  0  0  0  0  0  0  0  0  0  0  0
   10.6460   15.8430   19.4800 C   0  0  0  0  0  0  0  0  0  0  0  0
   10.9610   14.8050   18.6980 N   0  0  0  0  0  0  0  0  0  0  0  0
   10.7570   15.6720   20.9830 C   0  0  2  0  0  0  0  0  0  0  0  0
   12.1990   15.6570   21.4730 C   0  0  0  0  0  0  0  0  0  0  0  0
   12.2390   15.4650   22.9860 C   0  0  0  0  0  0  0  0  0  0  0  0
   11.4670   14.2250   23.3970 C   0  0  0  0  0  0  0  0  0  0  0  0
    9.9270   14.4860   21.4290 C   0  0  0  0  0  0  0  0  0  0  0  0
   10.0950   14.1950   22.8550 N   0  0  0  0  0  0  0  0  0  0  0  0
    9.0650   13.5230   23.4170 C   0  0  0  0  0  0  0  0  0  0  0  0
    7.9860   13.3060   22.8250 O   0  0  0  0  0  0  0  0  0  0  0  0
    9.3490   12.9510   24.7880 C   0  0  0  0  0  0  0  0  0  0  0  0
    8.2320   11.9940   25.1370 C   0  0  0  0  0  0  0  0  0  0  0  0
    8.2750   10.6670   24.6760 C   0  0  0  0  0  0  0  0  0  0  0  0
    9.2760   10.3930   23.7750 O   0  0  0  0  0  0  0  0  0  0  0  0
    9.4370    9.0290   23.3370 C   0  0  0  0  0  0  0  0  0  0  0  0
    7.2050   12.3420   26.0240 C   0  0  0  0  0  0  0  0  0  0  0  0
    7.1200   13.9660   26.6480 Cl  0  0  0  0  0  0  0  0  0  0  0  0
    6.2920   11.4230   26.4840 C   0  0  0  0  0  0  0  0  0  0  0  0
    6.3860   10.1140   26.0610 C   0  0  0  0  0  0  0  0  0  0  0  0
    7.3660    9.7290   25.1500 C   0  0  0  0  0  0  0  0  0  0  0  0
 16 15  1  0
 15 14  1  0
 14 21  2  0
 21 20  1  0
 20 19  2  0
 19 17  1  0
 18 17  1  0
 17 13  2  0
 14 13  1  0
 13 12  1  0
 12 10  1  0
 11 10  2  0
 10  9  1  0
  9  7  1  0
  7  6  1  0
  6  5  1  0
  5  4  1  0
  4  2  1  6
  3  2  1  0
  2  1  2  0
  8  4  1  0
  9  8  1  0
M  END
>  <smiles>  (102) 
COc1cccc(Cl)c1CC(=O)N1CCC[C@@H](C(N)=O)C1

>  <inchikey>  (102) 
NHPQEFHMDYOTOA-SNVBAGLBSA-N

>  <alias>  (102) 
A3858b

$$$$
A3868a
     RDKit          3D

 21 22  0  0  0  0  0  0  0  0999 V2000
   10.5760   16.7720   19.1710 O   0  0  0  0  0  0  0  0  0  0  0  0
   10.9050   15.6110   19.4300 C   0  0  0  0  0  0  0  0  0  0  0  0
   11.1470   14.7040   18.4940 N   0  0  0  0  0  0  0  0  0  0  0  0
   11.0830   15.1520   20.8680 C   0  0  1  0  0  0  0  0  0  0  0  0
   11.9630   16.1410   21.6550 C   0  0  0  0  0  0  0  0  0  0  0  0
   12.1240   15.7060   23.1140 C   0  0  0  0  0  0  0  0  0  0  0  0
   10.7750   15.5650   23.7770 C   0  0  0  0  0  0  0  0  0  0  0  0
    9.7370   15.0760   21.5900 C   0  0  0  0  0  0  0  0  0  0  0  0
    9.9140   14.6740   22.9900 N   0  0  0  0  0  0  0  0  0  0  0  0
    9.5090   13.5280   23.6210 C   0  0  0  0  0  0  0  0  0  0  0  0
   10.2780   12.9170   24.3510 O   0  0  0  0  0  0  0  0  0  0  0  0
    8.1950   13.1270   23.4810 N   0  0  0  0  0  0  0  0  0  0  0  0
    7.4130   13.6440   22.3610 C   0  0  0  0  0  0  0  0  0  0  0  0
    7.5460   12.1830   24.3500 C   0  0  0  0  0  0  0  0  0  0  0  0
    7.9060   10.8300   24.3290 C   0  0  0  0  0  0  0  0  0  0  0  0
    9.0220   10.5190   23.5910 O   0  0  0  0  0  0  0  0  0  0  0  0
    9.3900    9.1410   23.4700 C   0  0  0  0  0  0  0  0  0  0  0  0
    6.5160   12.6220   25.1750 C   0  0  0  0  0  0  0  0  0  0  0  0
    5.8310   11.7070   25.9610 C   0  0  0  0  0  0  0  0  0  0  0  0
    6.1550   10.3670   25.9140 C   0  0  0  0  0  0  0  0  0  0  0  0
    7.1870    9.9220   25.0940 C   0  0  0  0  0  0  0  0  0  0  0  0
 17 16  1  0
 16 15  1  0
 15 21  2  0
 21 20  1  0
 20 19  2  0
 19 18  1  0
 18 14  2  0
 15 14  1  0
 14 12  1  0
 13 12  1  0
 12 10  1  0
 11 10  2  0
 10  9  1  0
  9  7  1  0
  7  6  1  0
  6  5  1  0
  5  4  1  0
  4  2  1  6
  3  2  1  0
  2  1  2  0
  8  4  1  0
  9  8  1  0
M  END
>  <smiles>  (103) 
COc1ccccc1N(C)C(=O)N1CCC[C@H](C(N)=O)C1

>  <inchikey>  (103) 
BAFLNQPOAQUAMV-NSHDSACASA-N

>  <alias>  (103) 
A3868a

$$$$
A3869a
     RDKit          3D

 20 21  0  0  0  0  0  0  0  0999 V2000
   10.2100   16.8620   19.1130 O   0  0  0  0  0  0  0  0  0  0  0  0
   10.6050   15.7930   19.5860 C   0  0  0  0  0  0  0  0  0  0  0  0
   11.0370   14.7890   18.8270 N   0  0  0  0  0  0  0  0  0  0  0  0
   10.6430   15.5710   21.0900 C   0  0  2  0  0  0  0  0  0  0  0  0
   12.0880   15.5590   21.6050 C   0  0  0  0  0  0  0  0  0  0  0  0
   12.1320   15.2810   23.1050 C   0  0  0  0  0  0  0  0  0  0  0  0
   11.4650   13.9500   23.4180 C   0  0  0  0  0  0  0  0  0  0  0  0
    9.9520   14.2490   21.4390 C   0  0  0  0  0  0  0  0  0  0  0  0
   10.1100   13.8550   22.8460 N   0  0  0  0  0  0  0  0  0  0  0  0
    9.0750   13.2410   23.4700 C   0  0  0  0  0  0  0  0  0  0  0  0
    8.0100   13.0190   22.9050 O   0  0  0  0  0  0  0  0  0  0  0  0
    9.3140   12.7440   24.8860 C   0  0  0  0  0  0  0  0  0  0  0  0
    8.3440   11.6450   25.2650 C   0  0  0  0  0  0  0  0  0  0  0  0
    8.3780   10.3390   24.7270 C   0  0  0  0  0  0  0  0  0  0  0  0
    9.3740   10.1210   23.8350 O   0  0  0  0  0  0  0  0  0  0  0  0
    9.5740    8.7890   23.3580 C   0  0  0  0  0  0  0  0  0  0  0  0
    7.3300   11.8970   26.1880 C   0  0  0  0  0  0  0  0  0  0  0  0
    6.4370   10.9030   26.5360 C   0  0  0  0  0  0  0  0  0  0  0  0
    6.5720    9.6700   25.9500 C   0  0  0  0  0  0  0  0  0  0  0  0
    7.5250    9.3750   25.0490 N   0  0  0  0  0  0  0  0  0  0  0  0
 16 15  1  0
 15 14  1  0
 14 20  2  0
 20 19  1  0
 19 18  2  0
 18 17  1  0
 17 13  2  0
 14 13  1  0
 13 12  1  0
 12 10  1  0
 11 10  2  0
 10  9  1  0
  9  7  1  0
  7  6  1  0
  6  5  1  0
  5  4  1  0
  4  2  1  6
  3  2  1  0
  2  1  2  0
  8  4  1  0
  9  8  1  0
M  END
>  <smiles>  (104) 
COc1ncccc1CC(=O)N1CCC[C@@H](C(N)=O)C1

>  <inchikey>  (104) 
DPQNQDXNIINHJH-LLVKDONJSA-N

>  <alias>  (104) 
A3869a

$$$$
A3890a
     RDKit          3D

 21 22  0  0  0  0  0  0  0  0999 V2000
   10.1620   16.4590   19.0550 O   0  0  0  0  0  0  0  0  0  0  0  0
   10.6070   15.3420   19.3320 C   0  0  0  0  0  0  0  0  0  0  0  0
   11.0960   14.5130   18.4190 N   0  0  0  0  0  0  0  0  0  0  0  0
   10.5950   14.8230   20.7600 C   0  0  1  0  0  0  0  0  0  0  0  0
   11.7560   15.3980   21.5830 C   0  0  0  0  0  0  0  0  0  0  0  0
   11.8090   14.7370   22.9590 C   0  0  0  0  0  0  0  0  0  0  0  0
   10.4920   14.9190   23.6790 C   0  0  0  0  0  0  0  0  0  0  0  0
    9.2750   15.0250   21.5100 C   0  0  0  0  0  0  0  0  0  0  0  0
    9.3560   14.4510   22.8590 N   0  0  0  0  0  0  0  0  0  0  0  0
    8.3930   13.6230   23.3220 C   0  0  0  0  0  0  0  0  0  0  0  0
    7.4910   13.2390   22.6060 O   0  0  0  0  0  0  0  0  0  0  0  0
    8.3970   13.2600   24.8250 C   0  0  1  0  0  0  0  0  0  0  0  0
    8.0000   14.4720   25.5730 N   0  0  0  0  0  0  0  0  0  0  0  0
    7.5250   12.0650   25.1890 C   0  0  0  0  0  0  0  0  0  0  0  0
    7.8580   10.7710   24.7890 C   0  0  0  0  0  0  0  0  0  0  0  0
    8.9460   10.6740   23.9620 O   0  0  0  0  0  0  0  0  0  0  0  0
    9.3900    9.3680   23.5810 C   0  0  0  0  0  0  0  0  0  0  0  0
    6.4310   12.2260   26.0360 C   0  0  0  0  0  0  0  0  0  0  0  0
    5.7100   11.1370   26.4870 C   0  0  0  0  0  0  0  0  0  0  0  0
    6.0530    9.8760   26.0870 C   0  0  0  0  0  0  0  0  0  0  0  0
    7.1220    9.6810   25.2310 C   0  0  0  0  0  0  0  0  0  0  0  0
 17 16  1  0
 16 15  1  0
 15 21  2  0
 21 20  1  0
 20 19  2  0
 19 18  1  0
 18 14  2  0
 15 14  1  0
 14 12  1  0
 12 13  1  1
 12 10  1  0
 11 10  2  0
 10  9  1  0
  9  7  1  0
  7  6  1  0
  6  5  1  0
  5  4  1  0
  4  2  1  6
  3  2  1  0
  2  1  2  0
  8  4  1  0
  9  8  1  0
M  END
>  <smiles>  (105) 
COc1ccccc1[C@H](N)C(=O)N1CCC[C@H](C(N)=O)C1

>  <inchikey>  (105) 
CCGPYMIAYPDEFF-GWCFXTLKSA-N

>  <alias>  (105) 
A3890a

$$$$
A3895a
     RDKit          3D

 18 19  0  0  0  0  0  0  0  0999 V2000
   11.7080   15.4730   24.2950 O   0  0  0  0  0  0  0  0  0  0  0  0
   11.2000   15.2710   23.1990 C   0  0  0  0  0  0  0  0  0  0  0  0
   11.7440   15.6900   21.8610 C   0  0  0  0  0  0  0  0  0  0  0  0
   10.9710   14.7930   20.8970 C   0  0  2  0  0  0  0  0  0  0  0  0
   10.8360   15.3320   19.4800 C   0  0  0  0  0  0  0  0  0  0  0  0
   10.4440   16.4880   19.2670 O   0  0  0  0  0  0  0  0  0  0  0  0
   11.0940   14.4620   18.5080 N   0  0  0  0  0  0  0  0  0  0  0  0
    9.6090   14.6520   21.5860 C   0  0  0  0  0  0  0  0  0  0  0  0
    9.9860   14.7170   23.0020 N   0  0  0  0  0  0  0  0  0  0  0  0
    9.0460   14.3110   24.0530 C   0  0  0  0  0  0  0  0  0  0  0  0
    8.8620   12.8140   24.1580 C   0  0  0  0  0  0  0  0  0  0  0  0
    7.8460   12.3080   24.9700 C   0  0  0  0  0  0  0  0  0  0  0  0
    7.1020   13.2570   25.6260 O   0  0  0  0  0  0  0  0  0  0  0  0
    5.9910   12.8050   26.4190 C   0  0  0  0  0  0  0  0  0  0  0  0
    9.6780   11.9060   23.4770 C   0  0  0  0  0  0  0  0  0  0  0  0
    9.4760   10.5400   23.6030 C   0  0  0  0  0  0  0  0  0  0  0  0
    8.4680   10.0620   24.4110 C   0  0  0  0  0  0  0  0  0  0  0  0
    7.6480   10.9410   25.1010 C   0  0  0  0  0  0  0  0  0  0  0  0
 14 13  1  0
 13 12  1  0
 12 18  2  0
 18 17  1  0
 17 16  2  0
 16 15  1  0
 15 11  2  0
 12 11  1  0
 11 10  1  0
 10  9  1  0
  9  8  1  0
  8  4  1  0
  4  5  1  6
  7  5  1  0
  6  5  2  0
  4  3  1  0
  3  2  1  0
  9  2  1  0
  2  1  2  0
M  END
>  <smiles>  (106) 
COc1ccccc1CN1C[C@@H](C(N)=O)CC1=O

>  <inchikey>  (106) 
OROYSOLBVZCRAY-JTQLQIEISA-N

>  <alias>  (106) 
A3895a

$$$$
A3897a
     RDKit          3D

 20 21  0  0  0  0  0  0  0  0999 V2000
   10.1860   16.9570   19.1200 O   0  0  0  0  0  0  0  0  0  0  0  0
   10.5480   15.8800   19.5930 C   0  0  0  0  0  0  0  0  0  0  0  0
   10.9020   14.8490   18.8220 N   0  0  0  0  0  0  0  0  0  0  0  0
   10.6250   15.6840   21.0980 C   0  0  2  0  0  0  0  0  0  0  0  0
   12.0650   15.7140   21.5970 C   0  0  0  0  0  0  0  0  0  0  0  0
   12.0980   15.5720   23.1160 C   0  0  0  0  0  0  0  0  0  0  0  0
   11.3990   14.2900   23.5770 C   0  0  0  0  0  0  0  0  0  0  0  0
    9.9330   14.3960   21.5360 C   0  0  0  0  0  0  0  0  0  0  0  0
   10.0630   14.1330   22.9750 N   0  0  0  0  0  0  0  0  0  0  0  0
    9.0100   13.4950   23.5360 C   0  0  0  0  0  0  0  0  0  0  0  0
    7.9680   13.2540   22.9230 O   0  0  0  0  0  0  0  0  0  0  0  0
    9.2450   12.9400   24.9250 C   0  0  0  0  0  0  0  0  0  0  0  0
    8.1730   11.9320   25.2720 C   0  0  0  0  0  0  0  0  0  0  0  0
    8.1880   10.6310   24.7550 C   0  0  0  0  0  0  0  0  0  0  0  0
    9.1170   10.4050   23.7760 O   0  0  0  0  0  0  0  0  0  0  0  0
    9.4200    9.0500   23.4100 C   0  0  0  0  0  0  0  0  0  0  0  0
    7.1440   12.2310   26.1340 C   0  0  0  0  0  0  0  0  0  0  0  0
    6.2080   11.3690   26.5350 N   0  0  0  0  0  0  0  0  0  0  0  0
    6.2840   10.1250   26.0670 C   0  0  0  0  0  0  0  0  0  0  0  0
    7.2460    9.7030   25.1630 C   0  0  0  0  0  0  0  0  0  0  0  0
 16 15  1  0
 15 14  1  0
 14 20  2  0
 20 19  1  0
 19 18  2  0
 18 17  1  0
 17 13  2  0
 14 13  1  0
 13 12  1  0
 12 10  1  0
 11 10  2  0
 10  9  1  0
  9  7  1  0
  7  6  1  0
  6  5  1  0
  5  4  1  0
  4  2  1  6
  3  2  1  0
  2  1  2  0
  8  4  1  0
  9  8  1  0
M  END
>  <smiles>  (107) 
COc1ccncc1CC(=O)N1CCC[C@@H](C(N)=O)C1

>  <inchikey>  (107) 
ZKUXUDCBALXGFV-SNVBAGLBSA-N

>  <alias>  (107) 
A3897a

$$$$
A3920a
     RDKit          3D

 20 21  0  0  0  0  0  0  0  0999 V2000
   10.3410   16.5400   19.1910 O   0  0  0  0  0  0  0  0  0  0  0  0
   10.7600   15.3990   19.4130 C   0  0  0  0  0  0  0  0  0  0  0  0
   11.1500   14.5780   18.4530 N   0  0  0  0  0  0  0  0  0  0  0  0
   10.8480   14.8550   20.8290 C   0  0  1  0  0  0  0  0  0  0  0  0
   12.0530   15.4470   21.5800 C   0  0  0  0  0  0  0  0  0  0  0  0
   12.1420   14.9360   23.0250 C   0  0  0  0  0  0  0  0  0  0  0  0
   10.8180   15.1110   23.7560 C   0  0  0  0  0  0  0  0  0  0  0  0
    9.5690   15.0860   21.6380 C   0  0  0  0  0  0  0  0  0  0  0  0
    9.7160   14.5180   22.9800 N   0  0  0  0  0  0  0  0  0  0  0  0
    8.9030   13.5270   23.4010 C   0  0  0  0  0  0  0  0  0  0  0  0
    7.9670   13.1250   22.7230 O   0  0  0  0  0  0  0  0  0  0  0  0
    9.2050   12.9370   24.7670 C   0  0  0  0  0  0  0  0  0  0  0  0
    8.2400   11.8360   25.1530 C   0  0  0  0  0  0  0  0  0  0  0  0
    8.2820   10.5290   24.6220 C   0  0  0  0  0  0  0  0  0  0  0  0
    9.2850   10.3050   23.7440 O   0  0  0  0  0  0  0  0  0  0  0  0
    9.5570    8.9530   23.3650 C   0  0  0  0  0  0  0  0  0  0  0  0
    7.2690   12.0650   26.1250 C   0  0  0  0  0  0  0  0  0  0  0  0
    6.4170   11.0510   26.5200 C   0  0  0  0  0  0  0  0  0  0  0  0
    6.5470    9.8210   25.9230 C   0  0  0  0  0  0  0  0  0  0  0  0
    7.4590    9.5490   24.9750 N   0  0  0  0  0  0  0  0  0  0  0  0
 16 15  1  0
 15 14  1  0
 14 20  2  0
 20 19  1  0
 19 18  2  0
 18 17  1  0
 17 13  2  0
 14 13  1  0
 13 12  1  0
 12 10  1  0
 11 10  2  0
 10  9  1  0
  9  7  1  0
  7  6  1  0
  6  5  1  0
  5  4  1  0
  4  2  1  6
  3  2  1  0
  2  1  2  0
  8  4  1  0
  9  8  1  0
M  END
>  <smiles>  (108) 
COc1ncccc1CC(=O)N1CCC[C@H](C(N)=O)C1

>  <inchikey>  (108) 
DPQNQDXNIINHJH-NSHDSACASA-N

>  <alias>  (108) 
A3920a

$$$$
A3956a
     RDKit          3D

 19 20  0  0  0  0  0  0  0  0999 V2000
   11.6760   15.7260   24.0790 O   0  0  0  0  0  0  0  0  0  0  0  0
   11.2040   15.4650   22.9720 C   0  0  0  0  0  0  0  0  0  0  0  0
   11.7950   15.7940   21.6310 C   0  0  0  0  0  0  0  0  0  0  0  0
   10.9850   14.8880   20.6790 C   0  0  2  0  0  0  0  0  0  0  0  0
   10.9260   15.3080   19.2200 C   0  0  0  0  0  0  0  0  0  0  0  0
   11.2730   14.5370   18.3240 O   0  0  0  0  0  0  0  0  0  0  0  0
   10.4130   16.4980   18.9690 N   0  0  0  0  0  0  0  0  0  0  0  0
    9.6190   14.8500   21.3460 C   0  0  0  0  0  0  0  0  0  0  0  0
    9.9980   14.8900   22.7620 N   0  0  0  0  0  0  0  0  0  0  0  0
    9.1480   14.3580   23.8370 C   0  0  0  0  0  0  0  0  0  0  0  0
    9.3080   12.8420   23.9260 C   0  0  0  0  0  0  0  0  0  0  0  0
    8.1920   12.0670   24.5900 C   0  0  0  0  0  0  0  0  0  0  0  0
    8.1000   10.6910   24.3860 C   0  0  0  0  0  0  0  0  0  0  0  0
    9.0000   10.1940   23.4770 O   0  0  0  0  0  0  0  0  0  0  0  0
    9.0440    8.7800   23.2750 C   0  0  0  0  0  0  0  0  0  0  0  0
    7.2890   12.6680   25.4700 C   0  0  0  0  0  0  0  0  0  0  0  0
    6.3730   11.9020   26.1800 C   0  0  0  0  0  0  0  0  0  0  0  0
    6.3360   10.5290   26.0080 C   0  0  0  0  0  0  0  0  0  0  0  0
    7.1830    9.9200   25.0930 C   0  0  0  0  0  0  0  0  0  0  0  0
 15 14  1  0
 14 13  1  0
 13 19  2  0
 19 18  1  0
 18 17  2  0
 17 16  1  0
 16 12  2  0
 13 12  1  0
 12 11  1  0
 11 10  1  0
 10  9  1  0
  9  8  1  0
  8  4  1  0
  4  5  1  6
  7  5  1  0
  6  5  2  0
  4  3  1  0
  3  2  1  0
  9  2  1  0
  2  1  2  0
M  END
>  <smiles>  (109) 
COc1ccccc1CCN1C[C@@H](C(N)=O)CC1=O

>  <inchikey>  (109) 
IZZURCOVVRSJHS-NSHDSACASA-N

>  <alias>  (109) 
A3956a

$$$$
A3975a
     RDKit          3D

 24 26  0  0  0  0  0  0  0  0999 V2000
    7.3350   13.6670   22.2970 O   0  0  0  0  0  0  0  0  0  0  0  0
    8.1670   14.0150   23.1140 C   0  0  0  0  0  0  0  0  0  0  0  0
    9.2170   14.8010   22.7690 N   0  0  0  0  0  0  0  0  0  0  0  0
   10.3470   15.1410   23.6530 C   0  0  0  0  0  0  0  0  0  0  0  0
   11.6980   14.8370   23.0060 C   0  0  0  0  0  0  0  0  0  0  0  0
   11.7820   15.4350   21.5970 C   0  0  0  0  0  0  0  0  0  0  0  0
    9.2920   15.3770   21.4250 C   0  0  0  0  0  0  0  0  0  0  0  0
   10.5960   14.9610   20.7350 C   0  0  1  0  0  0  0  0  0  0  0  0
   10.6820   15.5100   19.3230 C   0  0  0  0  0  0  0  0  0  0  0  0
   10.3150   16.6600   19.0690 O   0  0  0  0  0  0  0  0  0  0  0  0
   11.1370   14.6750   18.3980 N   0  0  0  0  0  0  0  0  0  0  0  0
    8.0330   13.5610   24.5670 C   0  0  2  0  0  0  0  0  0  0  0  0
    8.2450   12.0550   24.4880 C   0  0  0  0  0  0  0  0  0  0  0  0
    7.3860   11.1690   25.1230 C   0  0  0  0  0  0  0  0  0  0  0  0
    7.5390    9.8040   24.9660 C   0  0  0  0  0  0  0  0  0  0  0  0
    8.5680    9.3010   24.1970 C   0  0  0  0  0  0  0  0  0  0  0  0
    9.4420   10.1650   23.5810 C   0  0  0  0  0  0  0  0  0  0  0  0
    9.2810   11.5340   23.7220 C   0  0  0  0  0  0  0  0  0  0  0  0
    6.6370   13.9580   25.0950 C   0  0  0  0  0  0  0  0  0  0  0  0
    6.4120   15.4120   25.1140 N   0  0  0  0  0  0  0  0  0  0  0  0
    5.0540   15.7760   25.5310 C   0  0  0  0  0  0  0  0  0  0  0  0
    5.1530   17.2580   25.8140 C   0  0  0  0  0  0  0  0  0  0  0  0
    6.5800   17.4570   26.2860 C   0  0  0  0  0  0  0  0  0  0  0  0
    7.2780   16.1180   26.0680 C   0  0  0  0  0  0  0  0  0  0  0  0
 11  9  1  0
 10  9  2  0
  8  9  1  6
  8  6  1  0
  6  5  1  0
  5  4  1  0
  4  3  1  0
  3  2  1  0
  2  1  2  0
 12  2  1  0
 12 19  1  6
 20 19  1  0
 20 24  1  0
 24 23  1  0
 23 22  1  0
 22 21  1  0
 21 20  1  0
 13 12  1  0
 13 18  2  0
 18 17  1  0
 17 16  2  0
 16 15  1  0
 15 14  2  0
 14 13  1  0
  7  3  1  0
  8  7  1  0
M  END
>  <smiles>  (110) 
NC(=O)[C@H]1CCCN(C(=O)[C@@H](CN2CCCC2)c2ccccc2)C1

>  <inchikey>  (110) 
NBHKSQZOSDYBJT-IRXDYDNUSA-N

>  <alias>  (110) 
A3975a

$$$$
A3977a
     RDKit          3D

 18 18  0  0  0  0  0  0  0  0999 V2000
   10.2680   16.5320   19.1130 O   0  0  0  0  0  0  0  0  0  0  0  0
   10.7660   15.4180   19.3270 C   0  0  0  0  0  0  0  0  0  0  0  0
   11.0940   14.5740   18.3610 N   0  0  0  0  0  0  0  0  0  0  0  0
   11.0480   14.9540   20.7330 C   0  0  0  0  0  0  0  0  0  0  0  0
    9.8270   15.1110   21.6240 C   0  0  0  0  0  0  0  0  0  0  0  0
    9.9820   14.4570   22.9260 N   0  0  0  0  0  0  0  0  0  0  0  0
   11.1560   14.8540   23.7000 C   0  0  0  0  0  0  0  0  0  0  0  0
    9.0830   13.5350   23.3420 C   0  0  0  0  0  0  0  0  0  0  0  0
    8.0810   13.2620   22.6800 O   0  0  0  0  0  0  0  0  0  0  0  0
    9.3190   12.9000   24.7010 C   0  0  0  0  0  0  0  0  0  0  0  0
    8.2040   11.9580   25.0960 C   0  0  0  0  0  0  0  0  0  0  0  0
    8.2170   10.6370   24.6490 C   0  0  0  0  0  0  0  0  0  0  0  0
    9.1720   10.3610   23.7040 O   0  0  0  0  0  0  0  0  0  0  0  0
    9.4250    8.9860   23.3770 C   0  0  0  0  0  0  0  0  0  0  0  0
    7.2160   12.3420   26.0020 C   0  0  0  0  0  0  0  0  0  0  0  0
    6.2990   11.4220   26.4840 C   0  0  0  0  0  0  0  0  0  0  0  0
    6.3550   10.1120   26.0720 C   0  0  0  0  0  0  0  0  0  0  0  0
    7.3050    9.7090   25.1410 C   0  0  0  0  0  0  0  0  0  0  0  0
 14 13  1  0
 13 12  1  0
 12 18  2  0
 18 17  1  0
 17 16  2  0
 16 15  1  0
 15 11  2  0
 12 11  1  0
 11 10  1  0
 10  8  1  0
  9  8  2  0
  8  6  1  0
  7  6  1  0
  6  5  1  0
  5  4  1  0
  4  2  1  0
  3  2  1  0
  2  1  2  0
M  END
>  <smiles>  (111) 
COc1ccccc1CC(=O)N(C)CCC(N)=O

>  <inchikey>  (111) 
HYRNBUDTYVNBBW-UHFFFAOYSA-N

>  <alias>  (111) 
A3977a

$$$$
A3977b
     RDKit          3D

 18 18  0  0  0  0  0  0  0  0999 V2000
   17.4400   -0.2190   20.0310 O   0  0  0  0  0  0  0  0  0  0  0  0
   18.6350    0.0880   19.9470 C   0  0  0  0  0  0  0  0  0  0  0  0
   19.0530    1.2850   19.5370 N   0  0  0  0  0  0  0  0  0  0  0  0
   19.7160   -0.9000   20.3230 C   0  0  0  0  0  0  0  0  0  0  0  0
   19.2430   -2.3450   20.1980 C   0  0  0  0  0  0  0  0  0  0  0  0
   19.2250   -2.8240   18.8140 N   0  0  0  0  0  0  0  0  0  0  0  0
   20.5190   -2.8880   18.1420 C   0  0  0  0  0  0  0  0  0  0  0  0
   18.1030   -3.2280   18.1770 C   0  0  0  0  0  0  0  0  0  0  0  0
   18.1330   -3.6240   17.0190 O   0  0  0  0  0  0  0  0  0  0  0  0
   16.8070   -3.2710   18.9660 C   0  0  0  0  0  0  0  0  0  0  0  0
   15.8410   -4.2820   18.3900 C   0  0  0  0  0  0  0  0  0  0  0  0
   16.1580   -5.6430   18.3840 C   0  0  0  0  0  0  0  0  0  0  0  0
   17.3970   -5.9440   18.8790 O   0  0  0  0  0  0  0  0  0  0  0  0
   17.7170   -7.3140   19.0990 C   0  0  0  0  0  0  0  0  0  0  0  0
   14.6000   -3.8900   17.8870 C   0  0  0  0  0  0  0  0  0  0  0  0
   13.6940   -4.8340   17.4310 C   0  0  0  0  0  0  0  0  0  0  0  0
   14.0200   -6.1740   17.4410 C   0  0  0  0  0  0  0  0  0  0  0  0
   15.2570   -6.5840   17.9050 C   0  0  0  0  0  0  0  0  0  0  0  0
 14 13  1  0
 13 12  1  0
 12 18  2  0
 18 17  1  0
 17 16  2  0
 16 15  1  0
 15 11  2  0
 12 11  1  0
 11 10  1  0
 10  8  1  0
  9  8  2  0
  8  6  1  0
  7  6  1  0
  6  5  1  0
  5  4  1  0
  4  2  1  0
  3  2  1  0
  2  1  2  0
M  END
>  <smiles>  (112) 
COc1ccccc1CC(=O)N(C)CCC(N)=O

>  <inchikey>  (112) 
HYRNBUDTYVNBBW-UHFFFAOYSA-N

>  <alias>  (112) 
A3977b

$$$$
A3982a
     RDKit          3D

 24 26  0  0  0  0  0  0  0  0999 V2000
    7.7190   13.4780   22.5490 O   0  0  0  0  0  0  0  0  0  0  0  0
    8.5590   13.9550   23.2940 C   0  0  0  0  0  0  0  0  0  0  0  0
    9.3400   14.9940   22.9180 N   0  0  0  0  0  0  0  0  0  0  0  0
   10.3290   15.6880   23.7580 C   0  0  0  0  0  0  0  0  0  0  0  0
   11.7280   15.5390   23.1810 C   0  0  0  0  0  0  0  0  0  0  0  0
   11.7550   15.9660   21.7120 C   0  0  0  0  0  0  0  0  0  0  0  0
    9.3160   15.4940   21.5420 C   0  0  0  0  0  0  0  0  0  0  0  0
   10.6760   15.2360   20.8890 C   0  0  1  0  0  0  0  0  0  0  0  0
   10.6290   15.7580   19.4650 C   0  0  0  0  0  0  0  0  0  0  0  0
   10.3780   16.9420   19.2310 O   0  0  0  0  0  0  0  0  0  0  0  0
   10.8420   14.8610   18.5130 N   0  0  0  0  0  0  0  0  0  0  0  0
    8.8070   13.3560   24.6810 C   0  0  0  0  0  0  0  0  0  0  0  0
    8.6590   11.8390   24.6220 C   0  0  0  0  0  0  0  0  0  0  0  0
    9.5370   11.0940   23.8430 C   0  0  0  0  0  0  0  0  0  0  0  0
    9.3790    9.7280   23.7050 C   0  0  0  0  0  0  0  0  0  0  0  0
    8.3550    9.0840   24.3520 C   0  0  0  0  0  0  0  0  0  0  0  0
    7.4850    9.8040   25.1450 C   0  0  0  0  0  0  0  0  0  0  0  0
    7.6320   11.1740   25.2770 C   0  0  0  0  0  0  0  0  0  0  0  0
    8.0280   14.1010   25.7610 C   0  0  0  0  0  0  0  0  0  0  0  0
    8.6900   14.6310   26.8580 C   0  0  0  0  0  0  0  0  0  0  0  0
    8.0020   15.3350   27.8270 C   0  0  0  0  0  0  0  0  0  0  0  0
    6.6430   15.5360   27.7040 C   0  0  0  0  0  0  0  0  0  0  0  0
    5.9770   15.0360   26.6120 C   0  0  0  0  0  0  0  0  0  0  0  0
    6.6640   14.3200   25.6460 C   0  0  0  0  0  0  0  0  0  0  0  0
 11  9  1  0
 10  9  2  0
  8  9  1  6
  8  6  1  0
  6  5  1  0
  5  4  1  0
  4  3  1  0
  3  2  1  0
  2  1  2  0
 12  2  1  0
 19 12  1  0
 19 24  2  0
 24 23  1  0
 23 22  2  0
 22 21  1  0
 21 20  2  0
 20 19  1  0
 13 12  1  0
 13 18  2  0
 18 17  1  0
 17 16  2  0
 16 15  1  0
 15 14  2  0
 14 13  1  0
  7  3  1  0
  8  7  1  0
M  END
>  <smiles>  (113) 
NC(=O)[C@H]1CCCN(C(=O)C(c2ccccc2)c2ccccc2)C1

>  <inchikey>  (113) 
VJCDCBHTHBGHRC-KRWDZBQOSA-N

>  <alias>  (113) 
A3982a

$$$$
A3986a
     RDKit          3D

 25 27  0  0  0  0  0  0  0  0999 V2000
    7.3230   13.3780   22.4450 O   0  0  0  0  0  0  0  0  0  0  0  0
    8.0690   13.9320   23.2300 C   0  0  0  0  0  0  0  0  0  0  0  0
    8.9320   14.8920   22.8350 N   0  0  0  0  0  0  0  0  0  0  0  0
    9.8940   15.5850   23.7110 C   0  0  0  0  0  0  0  0  0  0  0  0
   11.3270   15.3610   23.2480 C   0  0  0  0  0  0  0  0  0  0  0  0
   11.4870   15.7130   21.7630 C   0  0  0  0  0  0  0  0  0  0  0  0
    9.0010   15.3160   21.4360 C   0  0  0  0  0  0  0  0  0  0  0  0
   10.4070   15.0410   20.9020 C   0  0  1  0  0  0  0  0  0  0  0  0
   10.5170   15.4460   19.4430 C   0  0  0  0  0  0  0  0  0  0  0  0
   10.8670   14.6300   18.5800 O   0  0  0  0  0  0  0  0  0  0  0  0
   10.2170   16.7010   19.1590 N   0  0  0  0  0  0  0  0  0  0  0  0
    8.1710   13.4640   24.6840 C   0  0  2  0  0  0  0  0  0  0  0  0
    8.5190   11.9990   24.5660 C   0  0  0  0  0  0  0  0  0  0  0  0
    9.6420   11.6120   23.8510 C   0  0  0  0  0  0  0  0  0  0  0  0
    9.9070   10.2750   23.6190 C   0  0  0  0  0  0  0  0  0  0  0  0
    9.0640    9.3140   24.1040 C   0  0  0  0  0  0  0  0  0  0  0  0
    7.9510    9.6800   24.8260 C   0  0  0  0  0  0  0  0  0  0  0  0
    7.6860   11.0150   25.0710 C   0  0  0  0  0  0  0  0  0  0  0  0
    6.9220   13.8950   25.9750 S   0  0  0  0  0  0  0  0  0  0  0  0
    5.3900   13.9910   25.0810 C   0  0  0  0  0  0  0  0  0  0  0  0
    5.1810   14.8470   24.0090 C   0  0  0  0  0  0  0  0  0  0  0  0
    3.8940   15.0840   23.5500 C   0  0  0  0  0  0  0  0  0  0  0  0
    2.8180   14.4690   24.1480 C   0  0  0  0  0  0  0  0  0  0  0  0
    3.0220   13.6090   25.2050 C   0  0  0  0  0  0  0  0  0  0  0  0
    4.3040   13.3570   25.6680 C   0  0  0  0  0  0  0  0  0  0  0  0
 11  9  1  0
 10  9  2  0
  8  9  1  6
  8  6  1  0
  6  5  1  0
  5  4  1  0
  4  3  1  0
  3  2  1  0
  2  1  2  0
 12  2  1  0
 12 19  1  6
 20 19  1  0
 20 25  2  0
 25 24  1  0
 24 23  2  0
 23 22  1  0
 22 21  2  0
 21 20  1  0
 13 12  1  0
 13 18  2  0
 18 17  1  0
 17 16  2  0
 16 15  1  0
 15 14  2  0
 14 13  1  0
  7  3  1  0
  8  7  1  0
M  END
>  <smiles>  (114) 
NC(=O)[C@H]1CCCN(C(=O)[C@@H](Sc2ccccc2)c2ccccc2)C1

>  <inchikey>  (114) 
XCKSWRSDIRLLDZ-WMZOPIPTSA-N

>  <alias>  (114) 
A3986a

$$$$
A3986b
     RDKit          3D

 25 27  0  0  0  0  0  0  0  0999 V2000
    7.4380   13.4590   22.5480 O   0  0  0  0  0  0  0  0  0  0  0  0
    8.2600   13.9750   23.3040 C   0  0  0  0  0  0  0  0  0  0  0  0
    9.0790   14.9810   22.9120 N   0  0  0  0  0  0  0  0  0  0  0  0
   10.0330   15.7360   23.7460 C   0  0  0  0  0  0  0  0  0  0  0  0
   11.4690   15.4980   23.3040 C   0  0  0  0  0  0  0  0  0  0  0  0
   11.6460   15.8120   21.8160 C   0  0  0  0  0  0  0  0  0  0  0  0
    9.1330   15.3680   21.5030 C   0  0  0  0  0  0  0  0  0  0  0  0
   10.5450   15.1430   20.9690 C   0  0  1  0  0  0  0  0  0  0  0  0
   10.5670   15.6170   19.5280 C   0  0  0  0  0  0  0  0  0  0  0  0
   10.2430   16.7830   19.2310 O   0  0  0  0  0  0  0  0  0  0  0  0
   10.8850   14.6880   18.6300 N   0  0  0  0  0  0  0  0  0  0  0  0
    8.5860   13.4040   24.6780 C   0  0  2  0  0  0  0  0  0  0  0  0
    8.6710   11.9060   24.4950 C   0  0  0  0  0  0  0  0  0  0  0  0
    7.7680   11.0540   25.1050 C   0  0  0  0  0  0  0  0  0  0  0  0
    7.8850    9.6860   24.9520 C   0  0  0  0  0  0  0  0  0  0  0  0
    8.8920    9.1590   24.1800 C   0  0  0  0  0  0  0  0  0  0  0  0
    9.7870    9.9880   23.5660 C   0  0  0  0  0  0  0  0  0  0  0  0
    9.6810   11.3570   23.7210 C   0  0  0  0  0  0  0  0  0  0  0  0
    7.6610   13.9590   26.1680 S   0  0  0  0  0  0  0  0  0  0  0  0
    6.1120   14.5220   25.5160 C   0  0  0  0  0  0  0  0  0  0  0  0
    5.7430   15.8290   25.7940 C   0  0  0  0  0  0  0  0  0  0  0  0
    4.4130   16.2070   25.7040 C   0  0  0  0  0  0  0  0  0  0  0  0
    3.4570   15.2960   25.3090 C   0  0  0  0  0  0  0  0  0  0  0  0
    3.8280   14.0110   24.9840 C   0  0  0  0  0  0  0  0  0  0  0  0
    5.1570   13.6230   25.0700 C   0  0  0  0  0  0  0  0  0  0  0  0
 11  9  1  0
 10  9  2  0
  8  9  1  6
  8  6  1  0
  6  5  1  0
  5  4  1  0
  4  3  1  0
  3  2  1  0
  2  1  2  0
 12  2  1  0
 12 19  1  1
 20 19  1  0
 20 25  2  0
 25 24  1  0
 24 23  2  0
 23 22  1  0
 22 21  2  0
 21 20  1  0
 13 12  1  0
 13 18  2  0
 18 17  1  0
 17 16  2  0
 16 15  1  0
 15 14  2  0
 14 13  1  0
  7  3  1  0
  8  7  1  0
M  END
>  <smiles>  (115) 
NC(=O)[C@H]1CCCN(C(=O)[C@@H](Sc2ccccc2)c2ccccc2)C1

>  <inchikey>  (115) 
XCKSWRSDIRLLDZ-WMZOPIPTSA-N

>  <alias>  (115) 
A3986b

$$$$
A3990a
     RDKit          3D

 23 24  0  0  0  0  0  0  0  0999 V2000
   11.7190   16.9400   22.9180 F   0  0  0  0  0  0  0  0  0  0  0  0
   12.2480   15.9700   22.1670 C   0  0  0  0  0  0  0  0  0  0  0  0
   12.8880   16.5750   21.1530 F   0  0  0  0  0  0  0  0  0  0  0  0
   13.1820   15.3830   22.9160 F   0  0  0  0  0  0  0  0  0  0  0  0
   11.2140   14.9920   21.6880 C   0  0  2  0  0  0  0  0  0  0  0  0
   10.0870   15.6720   20.8790 C   0  0  1  0  0  0  0  0  0  0  0  0
   10.3670   15.8970   19.4080 C   0  0  0  0  0  0  0  0  0  0  0  0
   10.1340   16.9910   18.8890 O   0  0  0  0  0  0  0  0  0  0  0  0
   10.8570   14.8630   18.7270 N   0  0  0  0  0  0  0  0  0  0  0  0
    8.9020   14.7310   21.0850 C   0  0  0  0  0  0  0  0  0  0  0  0
   10.4920   14.3860   22.8900 C   0  0  0  0  0  0  0  0  0  0  0  0
    9.1160   14.2050   22.4290 N   0  0  0  0  0  0  0  0  0  0  0  0
    8.1180   13.5990   23.0990 C   0  0  0  0  0  0  0  0  0  0  0  0
    7.0690   13.2920   22.5600 O   0  0  0  0  0  0  0  0  0  0  0  0
    8.3810   13.3370   24.5710 C   0  0  0  0  0  0  0  0  0  0  0  0
    7.6040   12.1570   25.1110 C   0  0  0  0  0  0  0  0  0  0  0  0
    7.8420   10.8590   24.6500 C   0  0  0  0  0  0  0  0  0  0  0  0
    8.8060   10.7540   23.6830 O   0  0  0  0  0  0  0  0  0  0  0  0
    9.4440    9.4860   23.4940 C   0  0  0  0  0  0  0  0  0  0  0  0
    6.6440   12.3400   26.1020 C   0  0  0  0  0  0  0  0  0  0  0  0
    5.9360   11.2680   26.6110 C   0  0  0  0  0  0  0  0  0  0  0  0
    6.1700   10.0040   26.1430 C   0  0  0  0  0  0  0  0  0  0  0  0
    7.1260    9.7850   25.1610 C   0  0  0  0  0  0  0  0  0  0  0  0
 19 18  1  0
 18 17  1  0
 17 23  2  0
 23 22  1  0
 22 21  2  0
 21 20  1  0
 20 16  2  0
 17 16  1  0
 16 15  1  0
 15 13  1  0
 14 13  2  0
 13 12  1  0
 12 10  1  0
 10  6  1  0
  6  7  1  6
  9  7  1  0
  8  7  2  0
  6  5  1  0
  5  2  1  1
  3  2  1  0
  4  2  1  0
  2  1  1  0
 11  5  1  0
 12 11  1  0
M  END
>  <smiles>  (116) 
COc1ccccc1CC(=O)N1C[C@H](C(N)=O)[C@@H](C(F)(F)F)C1

>  <inchikey>  (116) 
WDWZKNJCYBSIRL-QWRGUYRKSA-N

>  <alias>  (116) 
A3990a

$$$$
A4012a
     RDKit          3D

 20 21  0  0  0  0  0  0  0  0999 V2000
   10.3060   16.6970   19.2290 O   0  0  0  0  0  0  0  0  0  0  0  0
   10.6380   15.5320   19.4810 C   0  0  0  0  0  0  0  0  0  0  0  0
   10.9800   14.6620   18.5310 N   0  0  0  0  0  0  0  0  0  0  0  0
   10.6250   14.9990   20.9030 C   0  0  1  0  0  0  0  0  0  0  0  0
   11.7410   15.6080   21.7760 C   0  0  0  0  0  0  0  0  0  0  0  0
   11.7250   14.9760   23.1740 C   0  0  0  0  0  0  0  0  0  0  0  0
   10.3610   15.1280   23.8210 C   0  0  0  0  0  0  0  0  0  0  0  0
    9.2610   15.2290   21.5630 C   0  0  0  0  0  0  0  0  0  0  0  0
    9.2770   14.6810   22.9250 N   0  0  0  0  0  0  0  0  0  0  0  0
    8.3590   13.7150   23.2430 C   0  0  0  0  0  0  0  0  0  0  0  0
    7.5760   13.2730   22.4250 O   0  0  0  0  0  0  0  0  0  0  0  0
    8.3620   13.2760   24.5290 N   0  0  0  0  0  0  0  0  0  0  0  0
    7.4930   12.2700   25.0120 C   0  0  0  0  0  0  0  0  0  0  0  0
    7.7280   10.9260   24.5960 C   0  0  0  0  0  0  0  0  0  0  0  0
    8.7930   10.7640   23.7540 O   0  0  0  0  0  0  0  0  0  0  0  0
    9.1140    9.4240   23.3270 C   0  0  0  0  0  0  0  0  0  0  0  0
    6.4660   12.5320   25.9210 C   0  0  0  0  0  0  0  0  0  0  0  0
    5.7080   11.4800   26.4170 C   0  0  0  0  0  0  0  0  0  0  0  0
    5.9400   10.1840   26.0020 C   0  0  0  0  0  0  0  0  0  0  0  0
    6.9510    9.8940   25.0920 C   0  0  0  0  0  0  0  0  0  0  0  0
 16 15  1  0
 15 14  1  0
 14 20  2  0
 20 19  1  0
 19 18  2  0
 18 17  1  0
 17 13  2  0
 14 13  1  0
 13 12  1  0
 12 10  1  0
 11 10  2  0
 10  9  1  0
  9  7  1  0
  7  6  1  0
  6  5  1  0
  5  4  1  0
  4  2  1  6
  3  2  1  0
  2  1  2  0
  8  4  1  0
  9  8  1  0
M  END
>  <smiles>  (117) 
COc1ccccc1NC(=O)N1CCC[C@H](C(N)=O)C1

>  <inchikey>  (117) 
IQHVDKFVLUCUBM-JTQLQIEISA-N

>  <alias>  (117) 
A4012a

$$$$
A4012b
     RDKit          3D

 20 21  0  0  0  0  0  0  0  0999 V2000
   10.3970   16.6530   19.2580 O   0  0  0  0  0  0  0  0  0  0  0  0
   10.7640   15.4910   19.4900 C   0  0  0  0  0  0  0  0  0  0  0  0
   11.0570   14.6150   18.5280 N   0  0  0  0  0  0  0  0  0  0  0  0
   10.8280   14.9610   20.9110 C   0  0  1  0  0  0  0  0  0  0  0  0
   11.9720   15.6170   21.7030 C   0  0  0  0  0  0  0  0  0  0  0  0
   12.0530   15.0180   23.1110 C   0  0  0  0  0  0  0  0  0  0  0  0
   10.7250   15.1350   23.8380 C   0  0  0  0  0  0  0  0  0  0  0  0
    9.5060   15.1690   21.6490 C   0  0  0  0  0  0  0  0  0  0  0  0
    9.6180   14.6230   23.0060 N   0  0  0  0  0  0  0  0  0  0  0  0
    8.7540   13.6200   23.3650 C   0  0  0  0  0  0  0  0  0  0  0  0
    7.9240   13.1620   22.5850 O   0  0  0  0  0  0  0  0  0  0  0  0
    8.8570   13.1650   24.6370 N   0  0  0  0  0  0  0  0  0  0  0  0
    7.9990   12.1410   25.1450 C   0  0  0  0  0  0  0  0  0  0  0  0
    8.2000   10.8130   24.7170 C   0  0  0  0  0  0  0  0  0  0  0  0
    9.2180   10.6390   23.8150 O   0  0  0  0  0  0  0  0  0  0  0  0
    9.4810    9.3000   23.3630 C   0  0  0  0  0  0  0  0  0  0  0  0
    7.0270   12.4040   26.1040 C   0  0  0  0  0  0  0  0  0  0  0  0
    6.2800   11.3680   26.6390 C   0  0  0  0  0  0  0  0  0  0  0  0
    6.4760   10.0680   26.2100 C   0  0  0  0  0  0  0  0  0  0  0  0
    7.4260    9.7830   25.2400 C   0  0  0  0  0  0  0  0  0  0  0  0
 16 15  1  0
 15 14  1  0
 14 20  2  0
 20 19  1  0
 19 18  2  0
 18 17  1  0
 17 13  2  0
 14 13  1  0
 13 12  1  0
 12 10  1  0
 11 10  2  0
 10  9  1  0
  9  7  1  0
  7  6  1  0
  6  5  1  0
  5  4  1  0
  4  2  1  6
  3  2  1  0
  2  1  2  0
  8  4  1  0
  9  8  1  0
M  END
>  <smiles>  (118) 
COc1ccccc1NC(=O)N1CCC[C@H](C(N)=O)C1

>  <inchikey>  (118) 
IQHVDKFVLUCUBM-JTQLQIEISA-N

>  <alias>  (118) 
A4012b

$$$$
A4020a
     RDKit          3D

 19 20  0  0  0  0  0  0  0  0999 V2000
   10.2340   16.7990   19.0970 O   0  0  0  0  0  0  0  0  0  0  0  0
   10.5320   15.6350   19.3800 C   0  0  0  0  0  0  0  0  0  0  0  0
   10.8220   14.7240   18.4580 N   0  0  0  0  0  0  0  0  0  0  0  0
   10.5710   15.1650   20.8210 C   0  0  1  0  0  0  0  0  0  0  0  0
   11.7660   15.7710   21.5850 C   0  0  0  0  0  0  0  0  0  0  0  0
   11.7900   15.2990   23.0400 C   0  0  0  0  0  0  0  0  0  0  0  0
   10.4750   15.6260   23.7120 C   0  0  0  0  0  0  0  0  0  0  0  0
    9.2860   15.5820   21.5380 C   0  0  0  0  0  0  0  0  0  0  0  0
    9.3420   15.1090   22.9230 N   0  0  0  0  0  0  0  0  0  0  0  0
    8.5290   14.1060   23.3080 C   0  0  0  0  0  0  0  0  0  0  0  0
    7.6670   13.6450   22.5750 O   0  0  0  0  0  0  0  0  0  0  0  0
    8.7700   13.5610   24.7040 C   0  0  0  0  0  0  0  0  0  0  0  0
    8.2350   12.1600   24.8180 C   0  0  0  0  0  0  0  0  0  0  0  0
    7.1440   11.8670   25.6250 C   0  0  0  0  0  0  0  0  0  0  0  0
    6.6340   10.5790   25.6670 C   0  0  0  0  0  0  0  0  0  0  0  0
    7.2480    9.5700   24.9320 C   0  0  0  0  0  0  0  0  0  0  0  0
    8.8250   11.1360   24.0820 C   0  0  0  0  0  0  0  0  0  0  0  0
    8.3580    9.8350   24.1410 C   0  0  0  0  0  0  0  0  0  0  0  0
    9.0780    8.7280   23.4090 C   0  0  0  0  0  0  0  0  0  0  0  0
 19 18  1  0
 18 16  2  0
 16 15  1  0
 15 14  2  0
 14 13  1  0
 13 12  1  0
 12 10  1  0
 11 10  2  0
 10  9  1  0
  9  7  1  0
  7  6  1  0
  6  5  1  0
  5  4  1  0
  4  2  1  6
  3  2  1  0
  2  1  2  0
  8  4  1  0
  9  8  1  0
 17 13  2  0
 18 17  1  0
M  END
>  <smiles>  (119) 
Cc1cccc(CC(=O)N2CCC[C@H](C(N)=O)C2)c1

>  <inchikey>  (119) 
MJMYLTAWMFARRM-ZDUSSCGKSA-N

>  <alias>  (119) 
A4020a

$$$$
A4020b
     RDKit          3D

 19 20  0  0  0  0  0  0  0  0999 V2000
   10.3430   16.8070   19.0980 O   0  0  0  0  0  0  0  0  0  0  0  0
   10.6840   15.6470   19.3640 C   0  0  0  0  0  0  0  0  0  0  0  0
   10.9310   14.7310   18.4370 N   0  0  0  0  0  0  0  0  0  0  0  0
   10.7940   15.1790   20.8020 C   0  0  1  0  0  0  0  0  0  0  0  0
   12.0160   15.8080   21.5010 C   0  0  0  0  0  0  0  0  0  0  0  0
   12.0970   15.3810   22.9750 C   0  0  0  0  0  0  0  0  0  0  0  0
   10.7970   15.6810   23.6920 C   0  0  0  0  0  0  0  0  0  0  0  0
    9.5290   15.5490   21.5840 C   0  0  0  0  0  0  0  0  0  0  0  0
    9.6660   15.0830   22.9680 N   0  0  0  0  0  0  0  0  0  0  0  0
    8.9100   14.0480   23.3880 C   0  0  0  0  0  0  0  0  0  0  0  0
    8.0410   13.5490   22.6870 O   0  0  0  0  0  0  0  0  0  0  0  0
    9.2180   13.4850   24.7640 C   0  0  0  0  0  0  0  0  0  0  0  0
    8.6800   12.0790   24.8960 C   0  0  0  0  0  0  0  0  0  0  0  0
    7.6120   11.7930   25.7440 C   0  0  0  0  0  0  0  0  0  0  0  0
    7.0970   10.5110   25.8080 C   0  0  0  0  0  0  0  0  0  0  0  0
    7.6420    9.5070   25.0210 C   0  0  0  0  0  0  0  0  0  0  0  0
    9.2240   11.0510   24.1330 C   0  0  0  0  0  0  0  0  0  0  0  0
    8.7260    9.7580   24.1910 C   0  0  0  0  0  0  0  0  0  0  0  0
    9.3780    8.6450   23.4080 C   0  0  0  0  0  0  0  0  0  0  0  0
 19 18  1  0
 18 16  2  0
 16 15  1  0
 15 14  2  0
 14 13  1  0
 13 12  1  0
 12 10  1  0
 11 10  2  0
 10  9  1  0
  9  7  1  0
  7  6  1  0
  6  5  1  0
  5  4  1  0
  4  2  1  6
  3  2  1  0
  2  1  2  0
  8  4  1  0
  9  8  1  0
 17 13  2  0
 18 17  1  0
M  END
>  <smiles>  (120) 
Cc1cccc(CC(=O)N2CCC[C@H](C(N)=O)C2)c1

>  <inchikey>  (120) 
MJMYLTAWMFARRM-ZDUSSCGKSA-N

>  <alias>  (120) 
A4020b

$$$$
A4029a
     RDKit          3D

 19 20  0  0  0  0  0  0  0  0999 V2000
   11.3330   14.6310   25.0480 O   0  0  0  0  0  0  0  0  0  0  0  0
   11.2370   14.8130   23.8420 C   0  0  0  0  0  0  0  0  0  0  0  0
   12.4170   15.3330   23.0640 C   0  0  0  0  0  0  0  0  0  0  0  0
   12.0980   15.8260   21.6470 C   0  0  0  0  0  0  0  0  0  0  0  0
   11.1160   14.8860   20.9240 C   0  0  2  0  0  0  0  0  0  0  0  0
   10.8410   15.3450   19.4990 C   0  0  0  0  0  0  0  0  0  0  0  0
   10.3610   16.4620   19.2650 O   0  0  0  0  0  0  0  0  0  0  0  0
   11.1220   14.4730   18.5500 N   0  0  0  0  0  0  0  0  0  0  0  0
    9.8220   14.7540   21.7390 C   0  0  0  0  0  0  0  0  0  0  0  0
   10.0800   14.5810   23.1750 N   0  0  0  0  0  0  0  0  0  0  0  0
    8.8770   14.1940   23.9210 C   0  0  0  0  0  0  0  0  0  0  0  0
    8.7240   12.6980   24.0600 C   0  0  0  0  0  0  0  0  0  0  0  0
    7.7360   12.1600   24.8920 C   0  0  0  0  0  0  0  0  0  0  0  0
    6.9770   13.0850   25.5740 O   0  0  0  0  0  0  0  0  0  0  0  0
    5.9030   12.6040   26.3890 C   0  0  0  0  0  0  0  0  0  0  0  0
    9.5770   11.8160   23.3930 C   0  0  0  0  0  0  0  0  0  0  0  0
    9.4390   10.4470   23.5320 C   0  0  0  0  0  0  0  0  0  0  0  0
    8.4520    9.9320   24.3380 C   0  0  0  0  0  0  0  0  0  0  0  0
    7.5980   10.7800   25.0230 C   0  0  0  0  0  0  0  0  0  0  0  0
 15 14  1  0
 14 13  1  0
 13 19  2  0
 19 18  1  0
 18 17  2  0
 17 16  1  0
 16 12  2  0
 13 12  1  0
 12 11  1  0
 11 10  1  0
 10  9  1  0
  9  5  1  0
  5  6  1  6
  8  6  1  0
  7  6  2  0
  5  4  1  0
  4  3  1  0
  3  2  1  0
 10  2  1  0
  2  1  2  0
M  END
>  <smiles>  (121) 
COc1ccccc1CN1C[C@@H](C(N)=O)CCC1=O

>  <inchikey>  (121) 
PBLXCFVVIRAUAX-NSHDSACASA-N

>  <alias>  (121) 
A4029a

$$$$
A4031a
     RDKit          3D

 20 21  0  0  0  0  0  0  0  0999 V2000
   10.2610   16.6270   19.3130 O   0  0  0  0  0  0  0  0  0  0  0  0
   10.6380   15.4660   19.5340 C   0  0  0  0  0  0  0  0  0  0  0  0
   10.9770   14.6170   18.5600 N   0  0  0  0  0  0  0  0  0  0  0  0
   10.6700   14.8990   20.9430 C   0  0  1  0  0  0  0  0  0  0  0  0
   11.8190   15.4940   21.7830 C   0  0  0  0  0  0  0  0  0  0  0  0
   11.8460   14.8490   23.1700 C   0  0  0  0  0  0  0  0  0  0  0  0
   10.4920   14.9970   23.8690 C   0  0  0  0  0  0  0  0  0  0  0  0
    9.3370   15.1350   21.6590 C   0  0  0  0  0  0  0  0  0  0  0  0
    9.3760   14.5540   23.0080 N   0  0  0  0  0  0  0  0  0  0  0  0
    8.4990   13.5640   23.3470 C   0  0  0  0  0  0  0  0  0  0  0  0
    7.7030   13.1140   22.5320 O   0  0  0  0  0  0  0  0  0  0  0  0
    8.5540   13.1230   24.6390 N   0  0  0  0  0  0  0  0  0  0  0  0
    7.7350   12.0670   25.1180 C   0  0  0  0  0  0  0  0  0  0  0  0
    7.9400   10.7280   24.6200 C   0  0  0  0  0  0  0  0  0  0  0  0
    8.9470   10.5690   23.7400 O   0  0  0  0  0  0  0  0  0  0  0  0
    9.2530    9.2240   23.3180 C   0  0  0  0  0  0  0  0  0  0  0  0
    6.7440   12.2540   26.0870 C   0  0  0  0  0  0  0  0  0  0  0  0
    6.0080   11.1550   26.5110 C   0  0  0  0  0  0  0  0  0  0  0  0
    6.2660    9.9240   25.9460 C   0  0  0  0  0  0  0  0  0  0  0  0
    7.2350    9.6910   25.0330 N   0  0  0  0  0  0  0  0  0  0  0  0
 16 15  1  0
 15 14  1  0
 14 20  2  0
 20 19  1  0
 19 18  2  0
 18 17  1  0
 17 13  2  0
 14 13  1  0
 13 12  1  0
 12 10  1  0
 11 10  2  0
 10  9  1  0
  9  7  1  0
  7  6  1  0
  6  5  1  0
  5  4  1  0
  4  2  1  6
  3  2  1  0
  2  1  2  0
  8  4  1  0
  9  8  1  0
M  END
>  <smiles>  (122) 
COc1ncccc1NC(=O)N1CCC[C@H](C(N)=O)C1

>  <inchikey>  (122) 
RJRRIOPTPBEHKH-VIFPVBQESA-N

>  <alias>  (122) 
A4031a

$$$$
A4031b
     RDKit          3D

 20 21  0  0  0  0  0  0  0  0999 V2000
   10.3740   16.5990   19.3040 O   0  0  0  0  0  0  0  0  0  0  0  0
   10.7850   15.4420   19.5160 C   0  0  0  0  0  0  0  0  0  0  0  0
   11.0990   14.5950   18.5350 N   0  0  0  0  0  0  0  0  0  0  0  0
   10.8820   14.8850   20.9260 C   0  0  1  0  0  0  0  0  0  0  0  0
   12.0300   15.5250   21.7450 C   0  0  0  0  0  0  0  0  0  0  0  0
   12.1070   14.8760   23.1250 C   0  0  0  0  0  0  0  0  0  0  0  0
   10.7660   15.0090   23.8590 C   0  0  0  0  0  0  0  0  0  0  0  0
    9.5690   15.0880   21.6990 C   0  0  0  0  0  0  0  0  0  0  0  0
    9.6690   14.4780   23.0290 N   0  0  0  0  0  0  0  0  0  0  0  0
    8.7980   13.4860   23.3930 C   0  0  0  0  0  0  0  0  0  0  0  0
    7.9470   13.0550   22.6020 O   0  0  0  0  0  0  0  0  0  0  0  0
    8.8970   13.0310   24.6770 N   0  0  0  0  0  0  0  0  0  0  0  0
    8.0830   11.9690   25.1690 C   0  0  0  0  0  0  0  0  0  0  0  0
    8.2590   10.6480   24.6540 C   0  0  0  0  0  0  0  0  0  0  0  0
    9.2400   10.4810   23.7380 O   0  0  0  0  0  0  0  0  0  0  0  0
    9.5160    9.1320   23.2880 C   0  0  0  0  0  0  0  0  0  0  0  0
    7.1210   12.1570   26.1540 C   0  0  0  0  0  0  0  0  0  0  0  0
    6.3920   11.0600   26.5970 C   0  0  0  0  0  0  0  0  0  0  0  0
    6.6340    9.8260   26.0310 C   0  0  0  0  0  0  0  0  0  0  0  0
    7.5460    9.6100   25.0700 N   0  0  0  0  0  0  0  0  0  0  0  0
 16 15  1  0
 15 14  1  0
 14 20  2  0
 20 19  1  0
 19 18  2  0
 18 17  1  0
 17 13  2  0
 14 13  1  0
 13 12  1  0
 12 10  1  0
 11 10  2  0
 10  9  1  0
  9  7  1  0
  7  6  1  0
  6  5  1  0
  5  4  1  0
  4  2  1  6
  3  2  1  0
  2  1  2  0
  8  4  1  0
  9  8  1  0
M  END
>  <smiles>  (123) 
COc1ncccc1NC(=O)N1CCC[C@H](C(N)=O)C1

>  <inchikey>  (123) 
RJRRIOPTPBEHKH-VIFPVBQESA-N

>  <alias>  (123) 
A4031b

$$$$
A4032b
     RDKit          3D

 20 21  0  0  0  0  0  0  0  0999 V2000
   10.5800   16.7290   19.0480 O   0  0  0  0  0  0  0  0  0  0  0  0
   11.1700   15.6400   19.1980 C   0  0  0  0  0  0  0  0  0  0  0  0
   11.0710   14.6340   18.3360 N   0  0  0  0  0  0  0  0  0  0  0  0
   11.9660   15.3600   20.4500 C   0  0  0  0  0  0  0  0  0  0  0  0
   11.2760   15.8630   21.7050 C   0  0  2  0  0  0  0  0  0  0  0  0
   12.0770   15.5990   22.9870 C   0  0  0  0  0  0  0  0  0  0  0  0
   11.5230   14.3020   23.5590 C   0  0  0  0  0  0  0  0  0  0  0  0
    9.9110   15.1810   21.9470 C   0  0  0  0  0  0  0  0  0  0  0  0
   10.1310   14.2730   23.0750 N   0  0  0  0  0  0  0  0  0  0  0  0
    9.1400   13.4810   23.5250 C   0  0  0  0  0  0  0  0  0  0  0  0
    8.0380   13.4280   22.9780 O   0  0  0  0  0  0  0  0  0  0  0  0
    9.4650   12.6860   24.7770 C   0  0  0  0  0  0  0  0  0  0  0  0
    8.3460   11.7490   25.1730 C   0  0  0  0  0  0  0  0  0  0  0  0
    8.3180   10.4500   24.6710 C   0  0  0  0  0  0  0  0  0  0  0  0
    9.3020   10.1730   23.7670 O   0  0  0  0  0  0  0  0  0  0  0  0
    9.4550    8.8230   23.3110 C   0  0  0  0  0  0  0  0  0  0  0  0
    7.3830   12.1160   26.1110 C   0  0  0  0  0  0  0  0  0  0  0  0
    6.4360   11.2060   26.5520 C   0  0  0  0  0  0  0  0  0  0  0  0
    6.4190    9.9280   26.0470 C   0  0  0  0  0  0  0  0  0  0  0  0
    7.3510    9.5410   25.0910 C   0  0  0  0  0  0  0  0  0  0  0  0
 16 15  1  0
 15 14  1  0
 14 20  2  0
 20 19  1  0
 19 18  2  0
 18 17  1  0
 17 13  2  0
 14 13  1  0
 13 12  1  0
 12 10  1  0
 11 10  2  0
 10  9  1  0
  9  7  1  0
  7  6  1  0
  6  5  1  0
  5  4  1  6
  4  2  1  0
  3  2  1  0
  2  1  2  0
  8  5  1  0
  9  8  1  0
M  END
>  <smiles>  (124) 
COc1ccccc1CC(=O)N1CC[C@@H](CC(N)=O)C1

>  <inchikey>  (124) 
MSPWRYALONZABD-NSHDSACASA-N

>  <alias>  (124) 
A4032b

$$$$
A4035a
     RDKit          3D

 21 22  0  0  0  0  0  0  0  0999 V2000
   10.3010   16.6950   19.2760 O   0  0  0  0  0  0  0  0  0  0  0  0
   10.6490   15.5300   19.4880 C   0  0  0  0  0  0  0  0  0  0  0  0
   11.0340   14.7070   18.5280 N   0  0  0  0  0  0  0  0  0  0  0  0
   10.6490   14.9540   20.8970 C   0  0  1  0  0  0  0  0  0  0  0  0
   11.7760   15.5520   21.7520 C   0  0  0  0  0  0  0  0  0  0  0  0
   11.7360   15.0110   23.1860 C   0  0  0  0  0  0  0  0  0  0  0  0
   10.3570   15.2250   23.8070 C   0  0  0  0  0  0  0  0  0  0  0  0
    9.3000   15.2510   21.5650 C   0  0  0  0  0  0  0  0  0  0  0  0
    9.2850   14.7200   22.9310 N   0  0  0  0  0  0  0  0  0  0  0  0
    8.3960   13.7280   23.2540 C   0  0  0  0  0  0  0  0  0  0  0  0
    7.5800   13.3040   22.4520 O   0  0  0  0  0  0  0  0  0  0  0  0
    8.4670   13.2530   24.5200 N   0  0  0  0  0  0  0  0  0  0  0  0
    7.5880   12.2210   24.9560 C   0  0  0  0  0  0  0  0  0  0  0  0
    7.8360   10.8820   24.6040 C   0  0  0  0  0  0  0  0  0  0  0  0
    8.8920   10.6880   23.7480 O   0  0  0  0  0  0  0  0  0  0  0  0
    9.2830    9.3450   23.4440 C   0  0  0  0  0  0  0  0  0  0  0  0
    6.5180   12.4950   25.8070 C   0  0  0  0  0  0  0  0  0  0  0  0
    6.1140   14.1380   26.2020 Cl  0  0  0  0  0  0  0  0  0  0  0  0
    5.7350   11.4920   26.3370 C   0  0  0  0  0  0  0  0  0  0  0  0
    6.0070   10.1780   26.0030 C   0  0  0  0  0  0  0  0  0  0  0  0
    7.0420    9.8680   25.1300 C   0  0  0  0  0  0  0  0  0  0  0  0
 16 15  1  0
 15 14  1  0
 14 21  2  0
 21 20  1  0
 20 19  2  0
 19 17  1  0
 18 17  1  0
 17 13  2  0
 14 13  1  0
 13 12  1  0
 12 10  1  0
 11 10  2  0
 10  9  1  0
  9  7  1  0
  7  6  1  0
  6  5  1  0
  5  4  1  0
  4  2  1  6
  3  2  1  0
  2  1  2  0
  8  4  1  0
  9  8  1  0
M  END
>  <smiles>  (125) 
COc1cccc(Cl)c1NC(=O)N1CCC[C@H](C(N)=O)C1

>  <inchikey>  (125) 
BAWQVTYFUSCRSF-VIFPVBQESA-N

>  <alias>  (125) 
A4035a

$$$$
A4035b
     RDKit          3D

 21 22  0  0  0  0  0  0  0  0999 V2000
   10.3080   16.6900   19.2460 O   0  0  0  0  0  0  0  0  0  0  0  0
   10.7240   15.5390   19.4340 C   0  0  0  0  0  0  0  0  0  0  0  0
   11.0680   14.7220   18.4480 N   0  0  0  0  0  0  0  0  0  0  0  0
   10.8150   14.9600   20.8350 C   0  0  1  0  0  0  0  0  0  0  0  0
   11.9540   15.6160   21.6330 C   0  0  0  0  0  0  0  0  0  0  0  0
   12.0040   15.1150   23.0800 C   0  0  0  0  0  0  0  0  0  0  0  0
   10.6460   15.2740   23.7610 C   0  0  0  0  0  0  0  0  0  0  0  0
    9.4990   15.2260   21.5730 C   0  0  0  0  0  0  0  0  0  0  0  0
    9.5840   14.6870   22.9340 N   0  0  0  0  0  0  0  0  0  0  0  0
    8.7400   13.6800   23.3150 C   0  0  0  0  0  0  0  0  0  0  0  0
    7.8680   13.2540   22.5640 O   0  0  0  0  0  0  0  0  0  0  0  0
    8.9280   13.1850   24.5720 N   0  0  0  0  0  0  0  0  0  0  0  0
    8.0520   12.1700   25.0640 C   0  0  0  0  0  0  0  0  0  0  0  0
    8.2630   10.8340   24.7100 C   0  0  0  0  0  0  0  0  0  0  0  0
    9.2710   10.6300   23.8080 O   0  0  0  0  0  0  0  0  0  0  0  0
    9.6160    9.2870   23.4900 C   0  0  0  0  0  0  0  0  0  0  0  0
    7.0370   12.4790   25.9610 C   0  0  0  0  0  0  0  0  0  0  0  0
    6.7470   14.1490   26.3700 Cl  0  0  0  0  0  0  0  0  0  0  0  0
    6.2560   11.4900   26.5350 C   0  0  0  0  0  0  0  0  0  0  0  0
    6.4810   10.1660   26.1940 C   0  0  0  0  0  0  0  0  0  0  0  0
    7.4700    9.8320   25.2740 C   0  0  0  0  0  0  0  0  0  0  0  0
 16 15  1  0
 15 14  1  0
 14 21  2  0
 21 20  1  0
 20 19  2  0
 19 17  1  0
 18 17  1  0
 17 13  2  0
 14 13  1  0
 13 12  1  0
 12 10  1  0
 11 10  2  0
 10  9  1  0
  9  7  1  0
  7  6  1  0
  6  5  1  0
  5  4  1  0
  4  2  1  6
  3  2  1  0
  2  1  2  0
  8  4  1  0
  9  8  1  0
M  END
>  <smiles>  (126) 
COc1cccc(Cl)c1NC(=O)N1CCC[C@H](C(N)=O)C1

>  <inchikey>  (126) 
BAWQVTYFUSCRSF-VIFPVBQESA-N

>  <alias>  (126) 
A4035b

$$$$
A4291a
     RDKit          3D

 21 22  0  0  0  0  0  0  0  0999 V2000
    8.8440    9.9320   24.1490 O   0  0  0  0  0  0  0  0  0  0  0  0
    7.9980   10.5880   24.7950 C   0  0  0  0  0  0  0  0  0  0  0  0
    6.9160    9.9540   25.3960 N   0  0  0  0  0  0  0  0  0  0  0  0
    5.9510   10.5960   26.1310 C   0  0  0  0  0  0  0  0  0  0  0  0
    4.8240    9.7700   26.6680 C   0  0  0  0  0  0  0  0  0  0  0  0
    8.0560   12.0160   24.9960 C   0  0  0  0  0  0  0  0  0  0  0  0
    7.0870   12.6740   25.7440 C   0  0  0  0  0  0  0  0  0  0  0  0
    7.1120   14.1330   26.0720 C   0  0  0  0  0  0  0  0  0  0  0  0
    6.0390   11.9360   26.2970 C   0  0  0  0  0  0  0  0  0  0  0  0
    9.2260   12.7610   24.4020 C   0  0  0  0  0  0  0  0  0  0  0  0
    8.8540   13.5370   23.1540 C   0  0  0  0  0  0  0  0  0  0  0  0
    7.8910   13.2170   22.4910 O   0  0  0  0  0  0  0  0  0  0  0  0
    9.6400   14.5790   22.8070 N   0  0  0  0  0  0  0  0  0  0  0  0
    9.5030   15.2210   21.4960 C   0  0  0  0  0  0  0  0  0  0  0  0
   10.7810   14.9830   20.6880 C   0  0  1  0  0  0  0  0  0  0  0  0
   10.7120   15.4940   19.2590 C   0  0  0  0  0  0  0  0  0  0  0  0
   10.3370   16.6480   19.0130 O   0  0  0  0  0  0  0  0  0  0  0  0
   11.0370   14.6150   18.3110 N   0  0  0  0  0  0  0  0  0  0  0  0
   11.9660   15.5770   21.4750 C   0  0  0  0  0  0  0  0  0  0  0  0
   12.0650   14.9420   22.8660 C   0  0  0  0  0  0  0  0  0  0  0  0
   10.7520   15.0870   23.6240 C   0  0  0  0  0  0  0  0  0  0  0  0
  5  4  1  0
  4  9  2  0
  9  7  1  0
  8  7  1  0
  7  6  2  0
 10  6  1  0
 11 10  1  0
 12 11  2  0
 13 11  1  0
 13 21  1  0
 21 20  1  0
 20 19  1  0
 19 15  1  0
 15 16  1  6
 18 16  1  0
 17 16  2  0
 15 14  1  0
 14 13  1  0
  6  2  1  0
  2  1  2  0
  3  2  1  0
  4  3  1  0
M  END
>  <smiles>  (127) 
Cc1cc(C)c(CC(=O)N2CCC[C@H](C(N)=O)C2)c(=O)[nH]1

>  <inchikey>  (127) 
BAOPJNLBCKGSSV-NSHDSACASA-N

>  <alias>  (127) 
A4291a

$$$$
A4304a
     RDKit          3D

 25 26  0  0  0  0  0  0  0  0999 V2000
   10.3540   16.9380   19.3340 O   0  0  0  0  0  0  0  0  0  0  0  0
   10.6070   15.7390   19.4480 C   0  0  0  0  0  0  0  0  0  0  0  0
   10.8480   14.9580   18.4090 N   0  0  0  0  0  0  0  0  0  0  0  0
   10.6570   15.0750   20.8120 C   0  0  1  0  0  0  0  0  0  0  0  0
   11.7240   15.7280   21.7040 C   0  0  0  0  0  0  0  0  0  0  0  0
   11.7430   15.1220   23.1110 C   0  0  0  0  0  0  0  0  0  0  0  0
   10.3610   15.1740   23.7400 C   0  0  0  0  0  0  0  0  0  0  0  0
    9.2990   15.1750   21.5180 C   0  0  0  0  0  0  0  0  0  0  0  0
    9.3600   14.5640   22.8500 N   0  0  0  0  0  0  0  0  0  0  0  0
    8.3850   13.7000   23.2550 C   0  0  0  0  0  0  0  0  0  0  0  0
    7.3930   13.4860   22.5700 O   0  0  0  0  0  0  0  0  0  0  0  0
    8.5630   13.1330   24.4760 N   0  0  0  0  0  0  0  0  0  0  0  0
    7.7410   12.1600   25.0780 C   0  0  0  0  0  0  0  0  0  0  0  0
    7.9660   10.8280   24.7130 C   0  0  0  0  0  0  0  0  0  0  0  0
    8.9080   10.6560   23.7340 O   0  0  0  0  0  0  0  0  0  0  0  0
    9.5130    9.3770   23.6070 C   0  0  0  0  0  0  0  0  0  0  0  0
    6.7630   12.4540   26.0190 C   0  0  0  0  0  0  0  0  0  0  0  0
    6.0140   11.4290   26.5840 C   0  0  0  0  0  0  0  0  0  0  0  0
    6.2670   10.1110   26.2380 C   0  0  0  0  0  0  0  0  0  0  0  0
    7.2320    9.8090   25.2960 C   0  0  0  0  0  0  0  0  0  0  0  0
    4.9140   11.7560   27.4290 N   0  0  0  0  0  0  0  0  0  0  0  0
    4.9090   11.5430   29.0430 S   0  0  0  0  0  0  0  0  0  0  0  0
    5.7050   12.5950   29.5960 O   0  0  0  0  0  0  0  0  0  0  0  0
    5.2860   10.1830   29.2840 O   0  0  0  0  0  0  0  0  0  0  0  0
    3.2490   11.7620   29.5680 C   0  0  0  0  0  0  0  0  0  0  0  0
 16 15  1  0
 15 14  1  0
 14 20  2  0
 20 19  1  0
 19 18  2  0
 21 18  1  0
 22 21  1  0
 25 22  1  0
 23 22  2  0
 24 22  2  0
 18 17  1  0
 17 13  2  0
 14 13  1  0
 13 12  1  0
 12 10  1  0
 11 10  2  0
 10  9  1  0
  9  7  1  0
  7  6  1  0
  6  5  1  0
  5  4  1  0
  4  2  1  6
  3  2  1  0
  2  1  2  0
  8  4  1  0
  9  8  1  0
M  END
>  <smiles>  (128) 
COc1ccc(NS(C)(=O)=O)cc1NC(=O)N1CCC[C@H](C(N)=O)C1

>  <inchikey>  (128) 
SXBSHLKXQZBYPV-JTQLQIEISA-N

>  <alias>  (128) 
A4304a

$$$$
A4305a
     RDKit          3D

 22 23  0  0  0  0  0  0  0  0999 V2000
   10.1700   16.5100   19.1370 O   0  0  0  0  0  0  0  0  0  0  0  0
   10.6120   15.3820   19.3940 C   0  0  0  0  0  0  0  0  0  0  0  0
   11.1410   14.5830   18.4730 N   0  0  0  0  0  0  0  0  0  0  0  0
   10.5540   14.8180   20.8010 C   0  0  1  0  0  0  0  0  0  0  0  0
   11.6440   15.4140   21.7140 C   0  0  0  0  0  0  0  0  0  0  0  0
   11.5910   14.7820   23.1070 C   0  0  0  0  0  0  0  0  0  0  0  0
   10.1990   14.9270   23.7090 C   0  0  0  0  0  0  0  0  0  0  0  0
    9.1940   15.0510   21.4610 C   0  0  0  0  0  0  0  0  0  0  0  0
    9.1760   14.4130   22.7820 N   0  0  0  0  0  0  0  0  0  0  0  0
    8.1380   13.6130   23.1460 C   0  0  0  0  0  0  0  0  0  0  0  0
    7.3160   13.2380   22.3270 O   0  0  0  0  0  0  0  0  0  0  0  0
    8.0400   13.3270   24.4780 N   0  0  0  0  0  0  0  0  0  0  0  0
    7.0660   12.5430   25.1470 C   0  0  0  0  0  0  0  0  0  0  0  0
    6.1350   13.0920   26.0280 C   0  0  0  0  0  0  0  0  0  0  0  0
    5.3540   12.2550   26.8110 C   0  0  0  0  0  0  0  0  0  0  0  0
    5.4830   10.8790   26.7120 C   0  0  0  0  0  0  0  0  0  0  0  0
    6.3860   10.3190   25.8210 C   0  0  0  0  0  0  0  0  0  0  0  0
    7.1630   11.1480   25.0320 C   0  0  0  0  0  0  0  0  0  0  0  0
    8.0050   10.7070   24.0380 O   0  0  0  0  0  0  0  0  0  0  0  0
    9.1290    9.8570   24.3740 C   0  0  0  0  0  0  0  0  0  0  0  0
    9.4230    8.9160   23.2500 C   0  0  0  0  0  0  0  0  0  0  0  0
   10.2800   10.7490   24.6860 C   0  0  0  0  0  0  0  0  0  0  0  0
 22 20  1  0
 21 20  1  0
 20 19  1  0
 19 18  1  0
 18 17  1  0
 17 16  2  0
 16 15  1  0
 15 14  2  0
 14 13  1  0
 18 13  2  0
 13 12  1  0
 12 10  1  0
 11 10  2  0
 10  9  1  0
  9  7  1  0
  7  6  1  0
  6  5  1  0
  5  4  1  0
  4  2  1  6
  3  2  1  0
  2  1  2  0
  8  4  1  0
  9  8  1  0
M  END
>  <smiles>  (129) 
CC(C)Oc1ccccc1NC(=O)N1CCC[C@H](C(N)=O)C1

>  <inchikey>  (129) 
LHHFKNNKVNZWBU-LBPRGKRZSA-N

>  <alias>  (129) 
A4305a

$$$$
A4306a
     RDKit          3D

 24 25  0  0  0  0  0  0  0  0999 V2000
   10.7870   10.1020   24.3290 F   0  0  0  0  0  0  0  0  0  0  0  0
    9.9400    9.4670   23.5460 C   0  0  0  0  0  0  0  0  0  0  0  0
   10.0390   10.0460   22.3550 F   0  0  0  0  0  0  0  0  0  0  0  0
   10.3930    8.2270   23.4020 F   0  0  0  0  0  0  0  0  0  0  0  0
    8.5730    9.5120   24.0980 C   0  0  0  0  0  0  0  0  0  0  0  0
    8.2230   10.9010   24.2310 O   0  0  0  0  0  0  0  0  0  0  0  0
    7.1080   11.2470   24.9520 C   0  0  0  0  0  0  0  0  0  0  0  0
    6.1910   10.3510   25.4850 C   0  0  0  0  0  0  0  0  0  0  0  0
    5.0980   10.8350   26.1840 C   0  0  0  0  0  0  0  0  0  0  0  0
    4.9270   12.1950   26.3620 C   0  0  0  0  0  0  0  0  0  0  0  0
    5.8410   13.0950   25.8330 C   0  0  0  0  0  0  0  0  0  0  0  0
    6.9410   12.6230   25.1160 C   0  0  0  0  0  0  0  0  0  0  0  0
    7.9540   13.4480   24.5670 N   0  0  0  0  0  0  0  0  0  0  0  0
    8.1680   13.6520   23.2270 C   0  0  0  0  0  0  0  0  0  0  0  0
    7.4040   13.2390   22.3710 O   0  0  0  0  0  0  0  0  0  0  0  0
    9.2520   14.4100   22.8970 N   0  0  0  0  0  0  0  0  0  0  0  0
   10.2870   14.8490   23.8490 C   0  0  0  0  0  0  0  0  0  0  0  0
   11.6870   14.7200   23.2540 C   0  0  0  0  0  0  0  0  0  0  0  0
   11.7500   15.3660   21.8710 C   0  0  0  0  0  0  0  0  0  0  0  0
    9.3200   15.0500   21.5780 C   0  0  0  0  0  0  0  0  0  0  0  0
   10.6820   14.7710   20.9310 C   0  0  1  0  0  0  0  0  0  0  0  0
   10.7850   15.3590   19.5330 C   0  0  0  0  0  0  0  0  0  0  0  0
   10.3560   16.4910   19.2850 O   0  0  0  0  0  0  0  0  0  0  0  0
   11.3460   14.5850   18.6140 N   0  0  0  0  0  0  0  0  0  0  0  0
 24 22  1  0
 23 22  2  0
 21 22  1  6
 21 19  1  0
 19 18  1  0
 18 17  1  0
 17 16  1  0
 16 14  1  0
 15 14  2  0
 14 13  1  0
 13 12  1  0
 12 11  2  0
 11 10  1  0
 10  9  2  0
  9  8  1  0
  8  7  2  0
 12  7  1  0
  7  6  1  0
  6  5  1  0
  5  2  1  0
  3  2  1  0
  4  2  1  0
  2  1  1  0
 20 16  1  0
 21 20  1  0
M  END
>  <smiles>  (130) 
NC(=O)[C@H]1CCCN(C(=O)Nc2ccccc2OCC(F)(F)F)C1

>  <inchikey>  (130) 
XHGBHCKDUHPBTE-JTQLQIEISA-N

>  <alias>  (130) 
A4306a

$$$$
A4308a
     RDKit          3D

 22 24  0  0  0  0  0  0  0  0999 V2000
    8.7460   10.4500   24.2910 Cl  0  0  0  0  0  0  0  0  0  0  0  0
    7.5610   11.2360   25.2900 C   0  0  0  0  0  0  0  0  0  0  0  0
    6.7000   10.4420   26.0240 C   0  0  0  0  0  0  0  0  0  0  0  0
    5.8260   11.0690   26.8750 C   0  0  0  0  0  0  0  0  0  0  0  0
    4.9460   10.5020   27.7670 O   0  0  0  0  0  0  0  0  0  0  0  0
    4.5800   11.5690   28.6430 C   0  0  0  0  0  0  0  0  0  0  0  0
    4.9220   12.7940   27.9940 O   0  0  0  0  0  0  0  0  0  0  0  0
    5.7830   12.4320   26.9830 C   0  0  0  0  0  0  0  0  0  0  0  0
    6.6030   13.2440   26.2250 C   0  0  0  0  0  0  0  0  0  0  0  0
    7.5290   12.6400   25.3720 C   0  0  0  0  0  0  0  0  0  0  0  0
    8.4780   13.4060   24.6630 N   0  0  0  0  0  0  0  0  0  0  0  0
    8.5070   13.6200   23.3180 C   0  0  0  0  0  0  0  0  0  0  0  0
    7.6250   13.2110   22.5700 O   0  0  0  0  0  0  0  0  0  0  0  0
    9.5480   14.3730   22.8520 N   0  0  0  0  0  0  0  0  0  0  0  0
   10.5290   15.0300   23.7320 C   0  0  0  0  0  0  0  0  0  0  0  0
   11.9060   15.0750   23.0870 C   0  0  0  0  0  0  0  0  0  0  0  0
   11.8340   15.6600   21.6720 C   0  0  0  0  0  0  0  0  0  0  0  0
    9.4490   14.9730   21.5180 C   0  0  0  0  0  0  0  0  0  0  0  0
   10.8030   14.9130   20.8110 C   0  0  1  0  0  0  0  0  0  0  0  0
   10.7520   15.4440   19.3870 C   0  0  0  0  0  0  0  0  0  0  0  0
   10.4470   16.6160   19.1540 O   0  0  0  0  0  0  0  0  0  0  0  0
   10.9920   14.5650   18.4320 N   0  0  0  0  0  0  0  0  0  0  0  0
 22 20  1  0
 21 20  2  0
 19 20  1  6
 19 17  1  0
 17 16  1  0
 16 15  1  0
 15 14  1  0
 14 12  1  0
 13 12  2  0
 12 11  1  0
 11 10  1  0
 10  9  2  0
  9  8  1  0
  8  4  2  0
  4  3  1  0
  3  2  2  0
 10  2  1  0
  2  1  1  0
  5  4  1  0
  6  5  1  0
  7  6  1  0
  8  7  1  0
 18 14  1  0
 19 18  1  0
M  END
>  <smiles>  (131) 
NC(=O)[C@H]1CCCN(C(=O)Nc2cc3c(cc2Cl)OCO3)C1

>  <inchikey>  (131) 
HMYUUXJXRPXXLY-QMMMGPOBSA-N

>  <alias>  (131) 
A4308a

$$$$
A4311a
     RDKit          3D

 22 23  0  0  0  0  0  0  0  0999 V2000
   10.0180   16.5670   18.8870 O   0  0  0  0  0  0  0  0  0  0  0  0
   10.3430   15.4250   19.2240 C   0  0  0  0  0  0  0  0  0  0  0  0
   10.8120   14.5250   18.3820 N   0  0  0  0  0  0  0  0  0  0  0  0
   10.3040   15.0040   20.6820 C   0  0  1  0  0  0  0  0  0  0  0  0
   11.4680   15.6500   21.4510 C   0  0  0  0  0  0  0  0  0  0  0  0
   11.4180   15.2670   22.9220 C   0  0  0  0  0  0  0  0  0  0  0  0
   10.0360   15.5900   23.5020 C   0  0  0  0  0  0  0  0  0  0  0  0
    8.9710   15.3710   21.3230 C   0  0  0  0  0  0  0  0  0  0  0  0
    8.9710   14.9360   22.7220 N   0  0  0  0  0  0  0  0  0  0  0  0
    8.3260   13.7880   23.0810 C   0  0  0  0  0  0  0  0  0  0  0  0
    7.4560   13.2950   22.3930 O   0  0  0  0  0  0  0  0  0  0  0  0
    8.6440   13.2670   24.2910 N   0  0  0  0  0  0  0  0  0  0  0  0
    8.0450   12.0960   24.8110 C   0  0  0  0  0  0  0  0  0  0  0  0
    6.9960   12.1790   25.7410 C   0  0  0  0  0  0  0  0  0  0  0  0
    6.3720   13.5050   26.2460 C   0  0  0  0  0  0  0  0  0  0  0  0
    5.3220   13.2650   27.3490 C   0  0  0  0  0  0  0  0  0  0  0  0
    5.6340   14.2630   25.1250 C   0  0  0  0  0  0  0  0  0  0  0  0
    7.4460   14.4100   26.8550 C   0  0  0  0  0  0  0  0  0  0  0  0
    8.5360   10.8600   24.4130 C   0  0  0  0  0  0  0  0  0  0  0  0
    7.9860    9.7040   24.9300 C   0  0  0  0  0  0  0  0  0  0  0  0
    6.9800    9.7710   25.8510 C   0  0  0  0  0  0  0  0  0  0  0  0
    6.4890   10.9950   26.2650 C   0  0  0  0  0  0  0  0  0  0  0  0
 18 15  1  0
 17 15  1  0
 16 15  1  0
 15 14  1  0
 14 22  2  0
 22 21  1  0
 21 20  2  0
 20 19  1  0
 19 13  2  0
 14 13  1  0
 13 12  1  0
 12 10  1  0
 11 10  2  0
 10  9  1  0
  9  7  1  0
  7  6  1  0
  6  5  1  0
  5  4  1  0
  4  2  1  6
  3  2  1  0
  2  1  2  0
  8  4  1  0
  9  8  1  0
M  END
>  <smiles>  (132) 
CC(C)(C)c1ccccc1NC(=O)N1CCC[C@H](C(N)=O)C1

>  <inchikey>  (132) 
NNZDJLYJDJZVJG-LBPRGKRZSA-N

>  <alias>  (132) 
A4311a

$$$$
A4317a
     RDKit          3D

 21 23  0  0  0  0  0  0  0  0999 V2000
   10.3940   16.5480   19.2530 O   0  0  0  0  0  0  0  0  0  0  0  0
   10.8390   15.4100   19.4510 C   0  0  0  0  0  0  0  0  0  0  0  0
   11.1610   14.5880   18.4590 N   0  0  0  0  0  0  0  0  0  0  0  0
   10.9680   14.8440   20.8570 C   0  0  2  0  0  0  0  0  0  0  0  0
    9.6080   14.6330   21.5280 C   0  0  0  0  0  0  0  0  0  0  0  0
   11.7260   15.7050   21.8820 C   0  0  0  0  0  0  0  0  0  0  0  0
   11.3010   15.0300   23.2090 C   0  0  0  0  0  0  0  0  0  0  0  0
   11.6480   15.6390   24.5300 C   0  0  0  0  0  0  0  0  0  0  0  0
   12.2610   14.3270   24.1140 C   0  0  0  0  0  0  0  0  0  0  0  0
    9.9570   14.4810   22.9490 N   0  0  0  0  0  0  0  0  0  0  0  0
    9.1360   13.9960   23.9150 C   0  0  0  0  0  0  0  0  0  0  0  0
    9.4460   13.9480   25.0960 O   0  0  0  0  0  0  0  0  0  0  0  0
    7.7760   13.4990   23.4690 C   0  0  0  0  0  0  0  0  0  0  0  0
    7.2460   12.4610   24.4320 C   0  0  0  0  0  0  0  0  0  0  0  0
    7.6360   11.1280   24.3070 C   0  0  0  0  0  0  0  0  0  0  0  0
    8.6070   10.8980   23.3720 O   0  0  0  0  0  0  0  0  0  0  0  0
    9.1190    9.5620   23.2500 C   0  0  0  0  0  0  0  0  0  0  0  0
    6.3050   12.7820   25.4050 C   0  0  0  0  0  0  0  0  0  0  0  0
    5.7340   11.7980   26.2010 C   0  0  0  0  0  0  0  0  0  0  0  0
    6.1030   10.4800   26.0390 C   0  0  0  0  0  0  0  0  0  0  0  0
    7.0460   10.1350   25.0830 C   0  0  0  0  0  0  0  0  0  0  0  0
 17 16  1  0
 16 15  1  0
 15 21  2  0
 21 20  1  0
 20 19  2  0
 19 18  1  0
 18 14  2  0
 15 14  1  0
 14 13  1  0
 13 11  1  0
 12 11  2  0
 11 10  1  0
 10  5  1  0
  5  4  1  0
  4  2  1  6
  3  2  1  0
  2  1  2  0
  6  4  1  0
  7  6  1  0
 10  7  1  0
  7  9  1  0
  9  8  1  0
  8  7  1  0
M  END
>  <smiles>  (133) 
COc1ccccc1CC(=O)N1C[C@@H](C(N)=O)CC12CC2

>  <inchikey>  (133) 
APDQHJBCMAYJOC-LBPRGKRZSA-N

>  <alias>  (133) 
A4317a

$$$$
A4320a
     RDKit          3D

 23 25  0  0  0  0  0  0  0  0999 V2000
    2.7550   12.4380   28.9830 O   0  0  0  0  0  0  0  0  0  0  0  0
    3.5940   12.6200   28.1000 C   0  0  0  0  0  0  0  0  0  0  0  0
    4.6610   11.8060   27.9660 N   0  0  0  0  0  0  0  0  0  0  0  0
    5.6700   11.9610   27.0140 C   0  0  0  0  0  0  0  0  0  0  0  0
    6.5210   10.9040   26.6950 C   0  0  0  0  0  0  0  0  0  0  0  0
    7.5190   11.0780   25.7550 C   0  0  0  0  0  0  0  0  0  0  0  0
    3.4920   13.7570   27.1210 C   0  0  0  0  0  0  0  0  0  0  0  0
    4.8410   14.3070   26.6740 C   0  0  0  0  0  0  0  0  0  0  0  0
    5.8160   13.1960   26.3670 C   0  0  0  0  0  0  0  0  0  0  0  0
    6.8330   13.3410   25.4230 C   0  0  0  0  0  0  0  0  0  0  0  0
    7.6950   12.2940   25.1070 C   0  0  0  0  0  0  0  0  0  0  0  0
    8.8250   12.4920   24.1140 C   0  0  0  0  0  0  0  0  0  0  0  0
    8.4650   13.4330   22.9760 C   0  0  0  0  0  0  0  0  0  0  0  0
    7.4490   13.2710   22.3400 O   0  0  0  0  0  0  0  0  0  0  0  0
    9.3410   14.4060   22.6580 N   0  0  0  0  0  0  0  0  0  0  0  0
   10.5410   14.7400   23.4400 C   0  0  0  0  0  0  0  0  0  0  0  0
   11.6470   15.4080   22.5870 C   0  0  0  0  0  0  0  0  0  0  0  0
   11.7710   14.7720   21.2110 C   0  0  0  0  0  0  0  0  0  0  0  0
    9.2410   15.0830   21.3630 C   0  0  0  0  0  0  0  0  0  0  0  0
   10.4110   14.5950   20.5270 C   0  0  1  0  0  0  0  0  0  0  0  0
   10.4880   15.1340   19.1140 C   0  0  0  0  0  0  0  0  0  0  0  0
    9.9460   16.1970   18.8030 O   0  0  0  0  0  0  0  0  0  0  0  0
   11.2470   14.4360   18.2990 N   0  0  0  0  0  0  0  0  0  0  0  0
 23 21  1  0
 22 21  2  0
 20 21  1  6
 20 18  1  0
 18 17  1  0
 17 16  1  0
 16 15  1  0
 15 13  1  0
 14 13  2  0
 13 12  1  0
 12 11  1  0
 11  6  2  0
  6  5  1  0
  5  4  2  0
  4  9  1  0
 10  9  2  0
 11 10  1  0
  9  8  1  0
  8  7  1  0
  7  2  1  0
  2  1  2  0
  3  2  1  0
  4  3  1  0
 19 15  1  0
 20 19  1  0
M  END
>  <smiles>  (134) 
NC(=O)[C@H]1CCCN(C(=O)Cc2ccc3c(c2)CCC(=O)N3)C1

>  <inchikey>  (134) 
HFCZUIHMPUCWLX-ZDUSSCGKSA-N

>  <alias>  (134) 
A4320a

$$$$
A4321a
     RDKit          3D

 21 22  0  0  0  0  0  0  0  0999 V2000
   10.3900   16.7560   19.1480 O   0  0  0  0  0  0  0  0  0  0  0  0
   10.7140   15.5890   19.3960 C   0  0  0  0  0  0  0  0  0  0  0  0
   10.9730   14.6950   18.4470 N   0  0  0  0  0  0  0  0  0  0  0  0
   10.7750   15.0810   20.8260 C   0  0  1  0  0  0  0  0  0  0  0  0
   11.9240   15.7330   21.6150 C   0  0  0  0  0  0  0  0  0  0  0  0
   11.9380   15.2400   23.0670 C   0  0  0  0  0  0  0  0  0  0  0  0
   10.5670   15.4220   23.7190 C   0  0  0  0  0  0  0  0  0  0  0  0
    9.4290   15.2930   21.5260 C   0  0  0  0  0  0  0  0  0  0  0  0
    9.5040   14.8050   22.9060 N   0  0  0  0  0  0  0  0  0  0  0  0
    8.6480   13.8520   23.3380 C   0  0  0  0  0  0  0  0  0  0  0  0
    7.8090   13.3550   22.6050 O   0  0  0  0  0  0  0  0  0  0  0  0
    8.7570   13.4470   24.7970 C   0  0  0  0  0  0  0  0  0  0  0  0
    7.8190   12.3150   25.1570 C   0  0  0  0  0  0  0  0  0  0  0  0
    8.0840   10.9860   24.7970 C   0  0  0  0  0  0  0  0  0  0  0  0
    9.3430   10.6160   24.0330 C   0  0  0  0  0  0  0  0  0  0  0  0
    9.4560    9.1810   23.7870 C   0  0  0  0  0  0  0  0  0  0  0  0
    9.5270    8.0680   23.5790 N   0  0  0  0  0  0  0  0  0  0  0  0
    6.6880   12.5930   25.9210 C   0  0  0  0  0  0  0  0  0  0  0  0
    5.8430   11.5800   26.3440 C   0  0  0  0  0  0  0  0  0  0  0  0
    6.1020   10.2840   25.9890 C   0  0  0  0  0  0  0  0  0  0  0  0
    7.2070    9.9860   25.2040 C   0  0  0  0  0  0  0  0  0  0  0  0
 17 16  3  0
 16 15  1  0
 15 14  1  0
 14 21  2  0
 21 20  1  0
 20 19  2  0
 19 18  1  0
 18 13  2  0
 14 13  1  0
 13 12  1  0
 12 10  1  0
 11 10  2  0
 10  9  1  0
  9  7  1  0
  7  6  1  0
  6  5  1  0
  5  4  1  0
  4  2  1  6
  3  2  1  0
  2  1  2  0
  8  4  1  0
  9  8  1  0
M  END
>  <smiles>  (135) 
N#CCc1ccccc1CC(=O)N1CCC[C@H](C(N)=O)C1

>  <inchikey>  (135) 
SPTOPDLRNCGQBI-AWEZNQCLSA-N

>  <alias>  (135) 
A4321a

$$$$
A4321b
     RDKit          3D

 21 22  0  0  0  0  0  0  0  0999 V2000
   10.4320   16.7650   19.1570 O   0  0  0  0  0  0  0  0  0  0  0  0
   10.7760   15.5980   19.3930 C   0  0  0  0  0  0  0  0  0  0  0  0
   11.0030   14.7010   18.4370 N   0  0  0  0  0  0  0  0  0  0  0  0
   10.9010   15.0950   20.8220 C   0  0  1  0  0  0  0  0  0  0  0  0
   12.0500   15.7970   21.5660 C   0  0  0  0  0  0  0  0  0  0  0  0
   12.1110   15.3520   23.0310 C   0  0  0  0  0  0  0  0  0  0  0  0
   10.7440   15.5140   23.7200 C   0  0  0  0  0  0  0  0  0  0  0  0
    9.5780   15.2810   21.5630 C   0  0  0  0  0  0  0  0  0  0  0  0
    9.6920   14.8270   22.9530 N   0  0  0  0  0  0  0  0  0  0  0  0
    8.8810   13.8470   23.4200 C   0  0  0  0  0  0  0  0  0  0  0  0
    8.0210   13.3210   22.7170 O   0  0  0  0  0  0  0  0  0  0  0  0
    9.0740   13.4330   24.8710 C   0  0  0  0  0  0  0  0  0  0  0  0
    8.1580   12.2940   25.2780 C   0  0  0  0  0  0  0  0  0  0  0  0
    8.3980   10.9670   24.8850 C   0  0  0  0  0  0  0  0  0  0  0  0
    9.6270   10.5990   24.0780 C   0  0  0  0  0  0  0  0  0  0  0  0
    9.7220    9.1660   23.8080 C   0  0  0  0  0  0  0  0  0  0  0  0
    9.7820    8.0570   23.5800 N   0  0  0  0  0  0  0  0  0  0  0  0
    7.0650   12.5660   26.0970 C   0  0  0  0  0  0  0  0  0  0  0  0
    6.2210   11.5520   26.5190 C   0  0  0  0  0  0  0  0  0  0  0  0
    6.4490   10.2560   26.1230 C   0  0  0  0  0  0  0  0  0  0  0  0
    7.5250    9.9630   25.3030 C   0  0  0  0  0  0  0  0  0  0  0  0
 17 16  3  0
 16 15  1  0
 15 14  1  0
 14 21  2  0
 21 20  1  0
 20 19  2  0
 19 18  1  0
 18 13  2  0
 14 13  1  0
 13 12  1  0
 12 10  1  0
 11 10  2  0
 10  9  1  0
  9  7  1  0
  7  6  1  0
  6  5  1  0
  5  4  1  0
  4  2  1  6
  3  2  1  0
  2  1  2  0
  8  4  1  0
  9  8  1  0
M  END
>  <smiles>  (136) 
N#CCc1ccccc1CC(=O)N1CCC[C@H](C(N)=O)C1

>  <inchikey>  (136) 
SPTOPDLRNCGQBI-AWEZNQCLSA-N

>  <alias>  (136) 
A4321b

$$$$
A4331a
     RDKit          3D

 20 21  0  0  0  0  0  0  0  0999 V2000
   10.3900   16.6700   19.1820 O   0  0  0  0  0  0  0  0  0  0  0  0
   10.7360   15.5110   19.4360 C   0  0  0  0  0  0  0  0  0  0  0  0
   11.0280   14.6230   18.4940 N   0  0  0  0  0  0  0  0  0  0  0  0
   10.7800   15.0020   20.8680 C   0  0  1  0  0  0  0  0  0  0  0  0
   11.8980   15.6810   21.6880 C   0  0  0  0  0  0  0  0  0  0  0  0
   11.9190   15.1450   23.1250 C   0  0  0  0  0  0  0  0  0  0  0  0
   10.5450   15.2800   23.7800 C   0  0  0  0  0  0  0  0  0  0  0  0
    9.4340   15.2130   21.5770 C   0  0  0  0  0  0  0  0  0  0  0  0
    9.4880   14.6820   22.9410 N   0  0  0  0  0  0  0  0  0  0  0  0
    8.6260   13.7250   23.3540 C   0  0  0  0  0  0  0  0  0  0  0  0
    7.7820   13.2410   22.6090 O   0  0  0  0  0  0  0  0  0  0  0  0
    8.7500   13.2780   24.8000 C   0  0  0  0  0  0  0  0  0  0  0  0
    7.7870   12.1660   25.1510 C   0  0  0  0  0  0  0  0  0  0  0  0
    8.0110   10.8310   24.7630 C   0  0  0  0  0  0  0  0  0  0  0  0
    9.2700   10.4120   24.0200 C   0  0  0  0  0  0  0  0  0  0  0  0
    9.3670    8.9500   23.6050 C   0  0  0  0  0  0  0  0  0  0  0  0
    6.6710   12.4690   25.9320 C   0  0  0  0  0  0  0  0  0  0  0  0
    5.7840   11.4780   26.3240 C   0  0  0  0  0  0  0  0  0  0  0  0
    5.9880   10.1810   25.9220 C   0  0  0  0  0  0  0  0  0  0  0  0
    7.0890    9.8580   25.1420 C   0  0  0  0  0  0  0  0  0  0  0  0
 16 15  1  0
 15 14  1  0
 14 20  2  0
 20 19  1  0
 19 18  2  0
 18 17  1  0
 17 13  2  0
 14 13  1  0
 13 12  1  0
 12 10  1  0
 11 10  2  0
 10  9  1  0
  9  7  1  0
  7  6  1  0
  6  5  1  0
  5  4  1  0
  4  2  1  6
  3  2  1  0
  2  1  2  0
  8  4  1  0
  9  8  1  0
M  END
>  <smiles>  (137) 
CCc1ccccc1CC(=O)N1CCC[C@H](C(N)=O)C1

>  <inchikey>  (137) 
IFJNGSWSPUXOCR-AWEZNQCLSA-N

>  <alias>  (137) 
A4331a

$$$$
A4331b
     RDKit          3D

 20 21  0  0  0  0  0  0  0  0999 V2000
   10.5010   16.7820   19.1570 O   0  0  0  0  0  0  0  0  0  0  0  0
   10.8430   15.6100   19.3500 C   0  0  0  0  0  0  0  0  0  0  0  0
   11.1290   14.7650   18.3680 N   0  0  0  0  0  0  0  0  0  0  0  0
   10.9630   15.0490   20.7570 C   0  0  1  0  0  0  0  0  0  0  0  0
   12.0890   15.7410   21.5510 C   0  0  0  0  0  0  0  0  0  0  0  0
   12.1000   15.3240   23.0280 C   0  0  0  0  0  0  0  0  0  0  0  0
   10.7070   15.4390   23.6540 C   0  0  0  0  0  0  0  0  0  0  0  0
    9.6180   15.2500   21.4620 C   0  0  0  0  0  0  0  0  0  0  0  0
    9.6980   14.7480   22.8350 N   0  0  0  0  0  0  0  0  0  0  0  0
    8.8530   13.7910   23.2880 C   0  0  0  0  0  0  0  0  0  0  0  0
    7.9670   13.3230   22.5880 O   0  0  0  0  0  0  0  0  0  0  0  0
    9.0270   13.3440   24.7300 C   0  0  0  0  0  0  0  0  0  0  0  0
    8.0470   12.2550   25.1210 C   0  0  0  0  0  0  0  0  0  0  0  0
    8.2190   10.9160   24.7240 C   0  0  0  0  0  0  0  0  0  0  0  0
    9.4040   10.4840   23.8790 C   0  0  0  0  0  0  0  0  0  0  0  0
    9.5350    9.0120   23.5310 C   0  0  0  0  0  0  0  0  0  0  0  0
    6.9840   12.5790   25.9620 C   0  0  0  0  0  0  0  0  0  0  0  0
    6.1020   11.6090   26.4070 C   0  0  0  0  0  0  0  0  0  0  0  0
    6.2610   10.3010   26.0080 C   0  0  0  0  0  0  0  0  0  0  0  0
    7.3090    9.9550   25.1690 C   0  0  0  0  0  0  0  0  0  0  0  0
 16 15  1  0
 15 14  1  0
 14 20  2  0
 20 19  1  0
 19 18  2  0
 18 17  1  0
 17 13  2  0
 14 13  1  0
 13 12  1  0
 12 10  1  0
 11 10  2  0
 10  9  1  0
  9  7  1  0
  7  6  1  0
  6  5  1  0
  5  4  1  0
  4  2  1  6
  3  2  1  0
  2  1  2  0
  8  4  1  0
  9  8  1  0
M  END
>  <smiles>  (138) 
CCc1ccccc1CC(=O)N1CCC[C@H](C(N)=O)C1

>  <inchikey>  (138) 
IFJNGSWSPUXOCR-AWEZNQCLSA-N

>  <alias>  (138) 
A4331b

$$$$
A4333a
     RDKit          3D

 19 20  0  0  0  0  0  0  0  0999 V2000
   10.4020   16.4890   19.3720 O   0  0  0  0  0  0  0  0  0  0  0  0
   10.8400   15.3530   19.5610 C   0  0  0  0  0  0  0  0  0  0  0  0
   11.2500   14.5750   18.5740 N   0  0  0  0  0  0  0  0  0  0  0  0
   10.9310   14.7680   20.9610 C   0  0  1  0  0  0  0  0  0  0  0  0
   12.0970   15.3750   21.7550 C   0  0  0  0  0  0  0  0  0  0  0  0
   12.1820   14.7930   23.1690 C   0  0  0  0  0  0  0  0  0  0  0  0
   10.8420   14.9010   23.8960 C   0  0  0  0  0  0  0  0  0  0  0  0
    9.6290   14.9380   21.7510 C   0  0  0  0  0  0  0  0  0  0  0  0
    9.7570   14.3340   23.0800 N   0  0  0  0  0  0  0  0  0  0  0  0
    8.9680   13.3030   23.4470 C   0  0  0  0  0  0  0  0  0  0  0  0
    8.0220   12.9410   22.7610 O   0  0  0  0  0  0  0  0  0  0  0  0
    9.3460   12.5890   24.7360 C   0  0  0  0  0  0  0  0  0  0  0  0
    8.3050   11.5840   25.1910 C   0  0  0  0  0  0  0  0  0  0  0  0
    8.2960   10.2430   24.7220 C   0  0  0  0  0  0  0  0  0  0  0  0
    9.3150    9.7400   23.7420 C   0  0  0  0  0  0  0  0  0  0  0  0
    7.3180   11.9500   26.1010 C   0  0  0  0  0  0  0  0  0  0  0  0
    6.3700   11.0290   26.5050 C   0  0  0  0  0  0  0  0  0  0  0  0
    6.4360    9.7530   25.9930 C   0  0  0  0  0  0  0  0  0  0  0  0
    7.3770    9.3520   25.1240 N   0  0  0  0  0  0  0  0  0  0  0  0
 15 14  1  0
 14 19  2  0
 19 18  1  0
 18 17  2  0
 17 16  1  0
 16 13  2  0
 14 13  1  0
 13 12  1  0
 12 10  1  0
 11 10  2  0
 10  9  1  0
  9  7  1  0
  7  6  1  0
  6  5  1  0
  5  4  1  0
  4  2  1  6
  3  2  1  0
  2  1  2  0
  8  4  1  0
  9  8  1  0
M  END
>  <smiles>  (139) 
Cc1ncccc1CC(=O)N1CCC[C@H](C(N)=O)C1

>  <inchikey>  (139) 
JMAAQTAWUKUKJY-LBPRGKRZSA-N

>  <alias>  (139) 
A4333a

$$$$
A4336a
     RDKit          3D

 20 21  0  0  0  0  0  0  0  0999 V2000
   10.4060   11.7370   23.2580 Cl  0  0  0  0  0  0  0  0  0  0  0  0
    9.0220   11.2810   24.1820 C   0  0  0  0  0  0  0  0  0  0  0  0
    8.6250    9.9510   24.2300 C   0  0  0  0  0  0  0  0  0  0  0  0
    9.5370    8.7300   23.4010 Cl  0  0  0  0  0  0  0  0  0  0  0  0
    7.5170    9.5710   24.9640 C   0  0  0  0  0  0  0  0  0  0  0  0
    6.8170   10.5300   25.6770 C   0  0  0  0  0  0  0  0  0  0  0  0
    7.2100   11.8580   25.6370 C   0  0  0  0  0  0  0  0  0  0  0  0
    8.3080   12.2600   24.8780 C   0  0  0  0  0  0  0  0  0  0  0  0
    8.6340   13.7320   24.7600 C   0  0  0  0  0  0  0  0  0  0  0  0
    8.5220   14.2010   23.3220 C   0  0  0  0  0  0  0  0  0  0  0  0
    7.7220   13.6820   22.5540 O   0  0  0  0  0  0  0  0  0  0  0  0
    9.3770   15.1670   22.9220 N   0  0  0  0  0  0  0  0  0  0  0  0
   10.4140   15.7940   23.7580 C   0  0  0  0  0  0  0  0  0  0  0  0
   11.7990   15.5690   23.1610 C   0  0  0  0  0  0  0  0  0  0  0  0
   11.8410   15.9730   21.6810 C   0  0  0  0  0  0  0  0  0  0  0  0
    9.3720   15.6590   21.5420 C   0  0  0  0  0  0  0  0  0  0  0  0
   10.7060   15.3190   20.8740 C   0  0  1  0  0  0  0  0  0  0  0  0
   10.7410   15.7400   19.4130 C   0  0  0  0  0  0  0  0  0  0  0  0
   10.4890   16.9000   19.0780 O   0  0  0  0  0  0  0  0  0  0  0  0
   11.0520   14.7910   18.5450 N   0  0  0  0  0  0  0  0  0  0  0  0
 20 18  1  0
 19 18  2  0
 17 18  1  6
 17 15  1  0
 15 14  1  0
 14 13  1  0
 13 12  1  0
 12 10  1  0
 11 10  2  0
 10  9  1  0
  9  8  1  0
  8  7  2  0
  7  6  1  0
  6  5  2  0
  5  3  1  0
  4  3  1  0
  3  2  2  0
  8  2  1  0
  2  1  1  0
 16 12  1  0
 17 16  1  0
M  END
>  <smiles>  (140) 
NC(=O)[C@H]1CCCN(C(=O)Cc2cccc(Cl)c2Cl)C1

>  <inchikey>  (140) 
TXWPVJKFUSGQMQ-JTQLQIEISA-N

>  <alias>  (140) 
A4336a

$$$$
A4343a
     RDKit          3D

 20 21  0  0  0  0  0  0  0  0999 V2000
    6.3820   12.8250   26.3430 Br  0  0  0  0  0  0  0  0  0  0  0  0
    7.3580   11.4410   25.4870 C   0  0  0  0  0  0  0  0  0  0  0  0
    6.9750   10.1350   25.5640 C   0  0  0  0  0  0  0  0  0  0  0  0
    5.9720    9.7410   26.2990 O   0  0  0  0  0  0  0  0  0  0  0  0
    7.6260    9.1180   24.8720 N   0  0  0  0  0  0  0  0  0  0  0  0
    8.6730    9.4850   24.1200 C   0  0  0  0  0  0  0  0  0  0  0  0
    9.1160   10.7790   24.0140 C   0  0  0  0  0  0  0  0  0  0  0  0
    8.4570   11.7880   24.7130 C   0  0  0  0  0  0  0  0  0  0  0  0
    8.9270   13.2140   24.6150 C   0  0  0  0  0  0  0  0  0  0  0  0
    8.6280   13.7690   23.2410 C   0  0  0  0  0  0  0  0  0  0  0  0
    7.7530   13.3050   22.5250 O   0  0  0  0  0  0  0  0  0  0  0  0
    9.4080   14.8020   22.8680 N   0  0  0  0  0  0  0  0  0  0  0  0
   10.4550   15.4120   23.7060 C   0  0  0  0  0  0  0  0  0  0  0  0
   11.8240   15.2270   23.0730 C   0  0  0  0  0  0  0  0  0  0  0  0
   11.8150   15.7360   21.6330 C   0  0  0  0  0  0  0  0  0  0  0  0
    9.3390   15.3160   21.5010 C   0  0  0  0  0  0  0  0  0  0  0  0
   10.6880   15.0600   20.8360 C   0  0  1  0  0  0  0  0  0  0  0  0
   10.6850   15.4680   19.3750 C   0  0  0  0  0  0  0  0  0  0  0  0
   10.9470   14.6440   18.4940 O   0  0  0  0  0  0  0  0  0  0  0  0
   10.2580   16.6860   19.1050 N   0  0  0  0  0  0  0  0  0  0  0  0
 20 18  1  0
 19 18  2  0
 17 18  1  6
 17 15  1  0
 15 14  1  0
 14 13  1  0
 13 12  1  0
 12 10  1  0
 11 10  2  0
 10  9  1  0
  9  8  1  0
  8  7  2  0
  7  6  1  0
  6  5  2  0
  5  3  1  0
  4  3  1  0
  3  2  2  0
  8  2  1  0
  2  1  1  0
 16 12  1  0
 17 16  1  0
M  END
>  <smiles>  (141) 
NC(=O)[C@H]1CCCN(C(=O)Cc2ccnc(O)c2Br)C1

>  <inchikey>  (141) 
FEHFYYIVCWNAFS-VIFPVBQESA-N

>  <alias>  (141) 
A4343a

$$$$
A4343b
     RDKit          3D

 20 21  0  0  0  0  0  0  0  0999 V2000
    6.6700   12.7330   26.4780 Br  0  0  0  0  0  0  0  0  0  0  0  0
    7.6250   11.3990   25.5560 C   0  0  0  0  0  0  0  0  0  0  0  0
    7.2200   10.0890   25.6240 C   0  0  0  0  0  0  0  0  0  0  0  0
    6.2130    9.6830   26.3610 O   0  0  0  0  0  0  0  0  0  0  0  0
    7.8590    9.0890   24.9110 N   0  0  0  0  0  0  0  0  0  0  0  0
    8.9030    9.4650   24.1540 C   0  0  0  0  0  0  0  0  0  0  0  0
    9.3590   10.7620   24.0600 C   0  0  0  0  0  0  0  0  0  0  0  0
    8.7170   11.7670   24.7790 C   0  0  0  0  0  0  0  0  0  0  0  0
    9.1920   13.1970   24.6810 C   0  0  0  0  0  0  0  0  0  0  0  0
    8.8440   13.7850   23.3250 C   0  0  0  0  0  0  0  0  0  0  0  0
    7.9470   13.3180   22.6280 O   0  0  0  0  0  0  0  0  0  0  0  0
    9.5860   14.8420   22.9340 N   0  0  0  0  0  0  0  0  0  0  0  0
   10.6160   15.5170   23.7400 C   0  0  0  0  0  0  0  0  0  0  0  0
   11.9810   15.3660   23.0770 C   0  0  0  0  0  0  0  0  0  0  0  0
   11.9340   15.8260   21.6170 C   0  0  0  0  0  0  0  0  0  0  0  0
    9.4840   15.3500   21.5650 C   0  0  0  0  0  0  0  0  0  0  0  0
   10.8100   15.1100   20.8430 C   0  0  1  0  0  0  0  0  0  0  0  0
   10.7320   15.5990   19.4090 C   0  0  0  0  0  0  0  0  0  0  0  0
   10.3620   16.7530   19.1520 O   0  0  0  0  0  0  0  0  0  0  0  0
   11.0090   14.6990   18.4800 N   0  0  0  0  0  0  0  0  0  0  0  0
 20 18  1  0
 19 18  2  0
 17 18  1  6
 17 15  1  0
 15 14  1  0
 14 13  1  0
 13 12  1  0
 12 10  1  0
 11 10  2  0
 10  9  1  0
  9  8  1  0
  8  7  2  0
  7  6  1  0
  6  5  2  0
  5  3  1  0
  4  3  1  0
  3  2  2  0
  8  2  1  0
  2  1  1  0
 16 12  1  0
 17 16  1  0
M  END
>  <smiles>  (142) 
NC(=O)[C@H]1CCCN(C(=O)Cc2ccnc(O)c2Br)C1

>  <inchikey>  (142) 
FEHFYYIVCWNAFS-VIFPVBQESA-N

>  <alias>  (142) 
A4343b

$$$$
A4346a
     RDKit          3D

 21 23  0  0  0  0  0  0  0  0999 V2000
    7.9920   13.4400   22.6310 O   0  0  0  0  0  0  0  0  0  0  0  0
    8.7960   13.9660   23.3850 C   0  0  0  0  0  0  0  0  0  0  0  0
    9.6170   14.9550   22.9740 N   0  0  0  0  0  0  0  0  0  0  0  0
   10.7100   15.5370   23.7670 C   0  0  0  0  0  0  0  0  0  0  0  0
   12.0350   15.3840   23.0420 C   0  0  0  0  0  0  0  0  0  0  0  0
   11.9420   15.9160   21.6040 C   0  0  0  0  0  0  0  0  0  0  0  0
    9.4890   15.5460   21.6370 C   0  0  0  0  0  0  0  0  0  0  0  0
   10.7690   15.2810   20.8400 C   0  0  1  0  0  0  0  0  0  0  0  0
   10.7240   15.7510   19.3960 C   0  0  0  0  0  0  0  0  0  0  0  0
   10.3510   16.8910   19.1070 O   0  0  0  0  0  0  0  0  0  0  0  0
   11.0840   14.8610   18.4870 N   0  0  0  0  0  0  0  0  0  0  0  0
    8.8990   13.5330   24.8350 C   0  0  0  0  0  0  0  0  0  0  0  0
    8.2260   12.1990   25.0660 C   0  0  0  0  0  0  0  0  0  0  0  0
    8.6950   11.0390   24.4130 C   0  0  0  0  0  0  0  0  0  0  0  0
    9.7480   10.7890   23.5980 N   0  0  0  0  0  0  0  0  0  0  0  0
    9.7220    9.4830   23.2980 O   0  0  0  0  0  0  0  0  0  0  0  0
    8.6830    8.8660   23.8820 N   0  0  0  0  0  0  0  0  0  0  0  0
    8.0020    9.8080   24.6010 C   0  0  0  0  0  0  0  0  0  0  0  0
    6.8670    9.7540   25.4240 C   0  0  0  0  0  0  0  0  0  0  0  0
    6.4390   10.9000   26.0760 C   0  0  0  0  0  0  0  0  0  0  0  0
    7.1100   12.1020   25.8990 C   0  0  0  0  0  0  0  0  0  0  0  0
 11  9  1  0
 10  9  2  0
  8  9  1  6
  8  6  1  0
  6  5  1  0
  5  4  1  0
  4  3  1  0
  3  2  1  0
  2  1  2  0
 12  2  1  0
 13 12  1  0
 13 21  2  0
 21 20  1  0
 20 19  2  0
 19 18  1  0
 18 17  2  0
 17 16  1  0
 16 15  1  0
 15 14  2  0
 14 13  1  0
 18 14  1  0
  7  3  1  0
  8  7  1  0
M  END
>  <smiles>  (143) 
NC(=O)[C@H]1CCCN(C(=O)Cc2cccc3nonc23)C1

>  <inchikey>  (143) 
MKKBHWGKGOZQED-JTQLQIEISA-N

>  <alias>  (143) 
A4346a

$$$$
A4347a
     RDKit          3D

 20 21  0  0  0  0  0  0  0  0999 V2000
   10.4570   16.5920   19.2800 O   0  0  0  0  0  0  0  0  0  0  0  0
   10.8680   15.4450   19.4840 C   0  0  0  0  0  0  0  0  0  0  0  0
   11.1940   14.6230   18.5050 N   0  0  0  0  0  0  0  0  0  0  0  0
   10.9390   14.8670   20.8890 C   0  0  1  0  0  0  0  0  0  0  0  0
   12.1270   15.4380   21.6880 C   0  0  0  0  0  0  0  0  0  0  0  0
   12.2300   14.7960   23.0760 C   0  0  0  0  0  0  0  0  0  0  0  0
   10.9120   14.9090   23.8220 C   0  0  0  0  0  0  0  0  0  0  0  0
    9.6500   14.9960   21.7030 C   0  0  0  0  0  0  0  0  0  0  0  0
    9.8030   14.3670   23.0180 N   0  0  0  0  0  0  0  0  0  0  0  0
    8.9440   13.4070   23.4270 C   0  0  0  0  0  0  0  0  0  0  0  0
    8.0290   13.0060   22.7130 O   0  0  0  0  0  0  0  0  0  0  0  0
    9.1720   12.8620   24.8260 C   0  0  0  0  0  0  0  0  0  0  0  0
    8.2550   11.7130   25.1830 C   0  0  0  0  0  0  0  0  0  0  0  0
    8.3530   10.4180   24.6220 C   0  0  0  0  0  0  0  0  0  0  0  0
    9.3990   10.2460   23.7840 O   0  0  0  0  0  0  0  0  0  0  0  0
    9.5410    8.9890   23.1330 C   0  0  0  0  0  0  0  0  0  0  0  0
    7.2850   11.8780   26.1650 C   0  0  0  0  0  0  0  0  0  0  0  0
    6.4650   10.8260   26.5270 C   0  0  0  0  0  0  0  0  0  0  0  0
    6.6290    9.6250   25.8900 C   0  0  0  0  0  0  0  0  0  0  0  0
    7.5550    9.4050   24.9440 N   0  0  0  0  0  0  0  0  0  0  0  0
 16 15  1  0
 15 14  1  0
 14 20  2  0
 20 19  1  0
 19 18  2  0
 18 17  1  0
 17 13  2  0
 14 13  1  0
 13 12  1  0
 12 10  1  0
 11 10  2  0
 10  9  1  0
  9  7  1  0
  7  6  1  0
  6  5  1  0
  5  4  1  0
  4  2  1  6
  3  2  1  0
  2  1  2  0
  8  4  1  0
  9  8  1  0
M  END
>  <smiles>  (144) 
COc1ncccc1CC(=O)N1CCC[C@H](C(N)=O)C1

>  <inchikey>  (144) 
DPQNQDXNIINHJH-NSHDSACASA-N

>  <alias>  (144) 
A4347a

$$$$
A4350a
     RDKit          3D

 19 20  0  0  0  0  0  0  0  0999 V2000
   10.4790   16.7580   19.2200 O   0  0  0  0  0  0  0  0  0  0  0  0
   10.7690   15.5770   19.4340 C   0  0  0  0  0  0  0  0  0  0  0  0
   11.0700   14.7260   18.4670 N   0  0  0  0  0  0  0  0  0  0  0  0
   10.8130   15.0230   20.8490 C   0  0  1  0  0  0  0  0  0  0  0  0
   11.9160   15.6980   21.6850 C   0  0  0  0  0  0  0  0  0  0  0  0
   11.9260   15.1980   23.1330 C   0  0  0  0  0  0  0  0  0  0  0  0
   10.5540   15.3440   23.7620 C   0  0  0  0  0  0  0  0  0  0  0  0
    9.4690   15.2220   21.5530 C   0  0  0  0  0  0  0  0  0  0  0  0
    9.5370   14.6940   22.9200 N   0  0  0  0  0  0  0  0  0  0  0  0
    8.7310   13.6860   23.3130 C   0  0  0  0  0  0  0  0  0  0  0  0
    7.8590   13.2380   22.5880 O   0  0  0  0  0  0  0  0  0  0  0  0
    8.9510   13.1270   24.7050 C   0  0  0  0  0  0  0  0  0  0  0  0
    8.7030   11.6360   24.7230 C   0  0  0  0  0  0  0  0  0  0  0  0
    7.6540   11.0680   25.4530 C   0  0  0  0  0  0  0  0  0  0  0  0
    6.7530   11.8870   26.3440 C   0  0  0  0  0  0  0  0  0  0  0  0
    9.4730   10.8110   23.9090 C   0  0  0  0  0  0  0  0  0  0  0  0
    9.1670    9.4700   23.8330 C   0  0  0  0  0  0  0  0  0  0  0  0
    8.1620    8.9060   24.5120 N   0  0  0  0  0  0  0  0  0  0  0  0
    7.4370    9.7070   25.3030 C   0  0  0  0  0  0  0  0  0  0  0  0
 15 14  1  0
 14 19  2  0
 19 18  1  0
 18 17  2  0
 17 16  1  0
 16 13  2  0
 14 13  1  0
 13 12  1  0
 12 10  1  0
 11 10  2  0
 10  9  1  0
  9  7  1  0
  7  6  1  0
  6  5  1  0
  5  4  1  0
  4  2  1  6
  3  2  1  0
  2  1  2  0
  8  4  1  0
  9  8  1  0
M  END
>  <smiles>  (145) 
Cc1cnccc1CC(=O)N1CCC[C@H](C(N)=O)C1

>  <inchikey>  (145) 
CGUHDJYKIPZZJZ-LBPRGKRZSA-N

>  <alias>  (145) 
A4350a

$$$$
A4365a
     RDKit          3D

 22 24  0  0  0  0  0  0  0  0999 V2000
    7.8720   13.5680   22.6130 O   0  0  0  0  0  0  0  0  0  0  0  0
    8.8350   13.9310   23.2800 C   0  0  0  0  0  0  0  0  0  0  0  0
    9.5760   15.0080   22.9590 N   0  0  0  0  0  0  0  0  0  0  0  0
   10.7350   15.4950   23.7200 C   0  0  0  0  0  0  0  0  0  0  0  0
   12.0220   15.2160   22.9450 C   0  0  0  0  0  0  0  0  0  0  0  0
   11.9180   15.7360   21.5090 C   0  0  0  0  0  0  0  0  0  0  0  0
    9.4380   15.6050   21.6300 C   0  0  0  0  0  0  0  0  0  0  0  0
   10.6580   15.1860   20.8110 C   0  0  1  0  0  0  0  0  0  0  0  0
   10.5700   15.6290   19.3620 C   0  0  0  0  0  0  0  0  0  0  0  0
   10.3070   16.7960   19.0680 O   0  0  0  0  0  0  0  0  0  0  0  0
   10.7870   14.6860   18.4560 N   0  0  0  0  0  0  0  0  0  0  0  0
    9.3380   13.1320   24.4640 C   0  0  0  0  0  0  0  0  0  0  0  0
    8.5330   11.8690   24.6110 C   0  0  0  0  0  0  0  0  0  0  0  0
    7.3910   11.8490   25.4050 C   0  0  0  0  0  0  0  0  0  0  0  0
    6.9550   13.0550   25.8950 O   0  0  0  0  0  0  0  0  0  0  0  0
    6.0900   12.9860   27.0570 C   0  0  0  0  0  0  0  0  0  0  0  0
    5.0750   11.8960   26.9180 C   0  0  0  0  0  0  0  0  0  0  0  0
    5.6050   10.6180   26.4650 O   0  0  0  0  0  0  0  0  0  0  0  0
    6.6920   10.6680   25.6270 C   0  0  0  0  0  0  0  0  0  0  0  0
    7.1150    9.4960   25.0220 C   0  0  0  0  0  0  0  0  0  0  0  0
    8.2360    9.5100   24.2090 C   0  0  0  0  0  0  0  0  0  0  0  0
    8.9410   10.6840   24.0030 C   0  0  0  0  0  0  0  0  0  0  0  0
 11  9  1  0
 10  9  2  0
  8  9  1  6
  8  6  1  0
  6  5  1  0
  5  4  1  0
  4  3  1  0
  3  2  1  0
  2  1  2  0
 12  2  1  0
 13 12  1  0
 13 22  1  0
 22 21  2  0
 21 20  1  0
 20 19  2  0
 19 14  1  0
 14 13  2  0
 15 14  1  0
 16 15  1  0
 17 16  1  0
 18 17  1  0
 19 18  1  0
  7  3  1  0
  8  7  1  0
M  END
>  <smiles>  (146) 
NC(=O)[C@H]1CCCN(C(=O)Cc2cccc3c2OCCO3)C1

>  <inchikey>  (146) 
FRGPDZGWTMZAON-LBPRGKRZSA-N

>  <alias>  (146) 
A4365a

$$$$
A4365b
     RDKit          3D

 22 24  0  0  0  0  0  0  0  0999 V2000
    8.0200   13.4600   22.6620 O   0  0  0  0  0  0  0  0  0  0  0  0
    8.9820   13.8830   23.3060 C   0  0  0  0  0  0  0  0  0  0  0  0
    9.7160   14.9430   22.9100 N   0  0  0  0  0  0  0  0  0  0  0  0
   10.7570   15.6180   23.6990 C   0  0  0  0  0  0  0  0  0  0  0  0
   12.1140   15.4260   23.0300 C   0  0  0  0  0  0  0  0  0  0  0  0
   12.0670   15.8730   21.5680 C   0  0  0  0  0  0  0  0  0  0  0  0
    9.6070   15.4200   21.5320 C   0  0  0  0  0  0  0  0  0  0  0  0
   10.9270   15.1640   20.8110 C   0  0  1  0  0  0  0  0  0  0  0  0
   10.7800   15.6760   19.3890 C   0  0  0  0  0  0  0  0  0  0  0  0
   10.4060   16.8330   19.1640 O   0  0  0  0  0  0  0  0  0  0  0  0
   10.9790   14.7760   18.4370 N   0  0  0  0  0  0  0  0  0  0  0  0
    9.4480   13.2090   24.5780 C   0  0  0  0  0  0  0  0  0  0  0  0
    8.6610   11.9360   24.7650 C   0  0  0  0  0  0  0  0  0  0  0  0
    7.5130   11.9230   25.5510 C   0  0  0  0  0  0  0  0  0  0  0  0
    7.1130   13.1260   26.0740 O   0  0  0  0  0  0  0  0  0  0  0  0
    6.2520   13.0190   27.2210 C   0  0  0  0  0  0  0  0  0  0  0  0
    5.1580   12.0110   26.9620 C   0  0  0  0  0  0  0  0  0  0  0  0
    5.6580   10.7220   26.5230 O   0  0  0  0  0  0  0  0  0  0  0  0
    6.7960   10.7490   25.7560 C   0  0  0  0  0  0  0  0  0  0  0  0
    7.2200    9.5700   25.1630 C   0  0  0  0  0  0  0  0  0  0  0  0
    8.3500    9.5760   24.3600 C   0  0  0  0  0  0  0  0  0  0  0  0
    9.0590   10.7480   24.1550 C   0  0  0  0  0  0  0  0  0  0  0  0
 11  9  1  0
 10  9  2  0
  8  9  1  6
  8  6  1  0
  6  5  1  0
  5  4  1  0
  4  3  1  0
  3  2  1  0
  2  1  2  0
 12  2  1  0
 13 12  1  0
 13 22  1  0
 22 21  2  0
 21 20  1  0
 20 19  2  0
 19 14  1  0
 14 13  2  0
 15 14  1  0
 16 15  1  0
 17 16  1  0
 18 17  1  0
 19 18  1  0
  7  3  1  0
  8  7  1  0
M  END
>  <smiles>  (147) 
NC(=O)[C@H]1CCCN(C(=O)Cc2cccc3c2OCCO3)C1

>  <inchikey>  (147) 
FRGPDZGWTMZAON-LBPRGKRZSA-N

>  <alias>  (147) 
A4365b

$$$$
A4368a
     RDKit          3D

 21 22  0  0  0  0  0  0  0  0999 V2000
   10.4050   16.6250   19.1440 O   0  0  0  0  0  0  0  0  0  0  0  0
   10.7790   15.4730   19.3810 C   0  0  0  0  0  0  0  0  0  0  0  0
   11.1770   14.6340   18.4350 N   0  0  0  0  0  0  0  0  0  0  0  0
   10.8060   14.9350   20.7990 C   0  0  1  0  0  0  0  0  0  0  0  0
   11.9790   15.5360   21.5920 C   0  0  0  0  0  0  0  0  0  0  0  0
   11.9890   15.0250   23.0320 C   0  0  0  0  0  0  0  0  0  0  0  0
   10.6520   15.2970   23.7010 C   0  0  0  0  0  0  0  0  0  0  0  0
    9.4880   15.2200   21.5300 C   0  0  0  0  0  0  0  0  0  0  0  0
    9.5480   14.7280   22.9100 N   0  0  0  0  0  0  0  0  0  0  0  0
    8.6460   13.8380   23.3820 C   0  0  0  0  0  0  0  0  0  0  0  0
    7.7610   13.3750   22.6790 O   0  0  0  0  0  0  0  0  0  0  0  0
    8.7630   13.4640   24.8500 C   0  0  0  0  0  0  0  0  0  0  0  0
    7.7230   12.4570   25.2860 C   0  0  0  0  0  0  0  0  0  0  0  0
    6.5700   12.9130   25.9230 C   0  0  0  0  0  0  0  0  0  0  0  0
    5.6390   12.0250   26.4290 C   0  0  0  0  0  0  0  0  0  0  0  0
    5.8350   10.6720   26.2930 C   0  0  0  0  0  0  0  0  0  0  0  0
    6.9650   10.1970   25.6500 C   0  0  0  0  0  0  0  0  0  0  0  0
    7.9220   11.0730   25.1450 C   0  0  0  0  0  0  0  0  0  0  0  0
    9.1600   10.5120   24.4970 C   0  0  0  0  0  0  0  0  0  0  0  0
    8.8830    9.2480   23.9390 O   0  0  0  0  0  0  0  0  0  0  0  0
   10.0620    8.6070   23.4940 C   0  0  0  0  0  0  0  0  0  0  0  0
 21 20  1  0
 20 19  1  0
 19 18  1  0
 18 17  1  0
 17 16  2  0
 16 15  1  0
 15 14  2  0
 14 13  1  0
 18 13  2  0
 13 12  1  0
 12 10  1  0
 11 10  2  0
 10  9  1  0
  9  7  1  0
  7  6  1  0
  6  5  1  0
  5  4  1  0
  4  2  1  6
  3  2  1  0
  2  1  2  0
  8  4  1  0
  9  8  1  0
M  END
>  <smiles>  (148) 
COCc1ccccc1CC(=O)N1CCC[C@H](C(N)=O)C1

>  <inchikey>  (148) 
GQZCOZOYCMVRCF-ZDUSSCGKSA-N

>  <alias>  (148) 
A4368a

$$$$
A4374a
     RDKit          3D

 20 21  0  0  0  0  0  0  0  0999 V2000
    7.7260   13.3050   22.5680 O   0  0  0  0  0  0  0  0  0  0  0  0
    8.6040   13.7330   23.3030 C   0  0  0  0  0  0  0  0  0  0  0  0
    9.4650   14.6970   22.9110 N   0  0  0  0  0  0  0  0  0  0  0  0
   10.5240   15.2660   23.7610 C   0  0  0  0  0  0  0  0  0  0  0  0
   11.8920   15.1380   23.0980 C   0  0  0  0  0  0  0  0  0  0  0  0
   11.8580   15.6670   21.6600 C   0  0  0  0  0  0  0  0  0  0  0  0
    9.4050   15.2360   21.5490 C   0  0  0  0  0  0  0  0  0  0  0  0
   10.7430   14.9880   20.8450 C   0  0  1  0  0  0  0  0  0  0  0  0
   10.6730   15.5280   19.4280 C   0  0  0  0  0  0  0  0  0  0  0  0
   10.3330   16.6960   19.2050 O   0  0  0  0  0  0  0  0  0  0  0  0
   10.9540   14.6590   18.4670 N   0  0  0  0  0  0  0  0  0  0  0  0
    8.7960   13.1980   24.7100 C   0  0  0  0  0  0  0  0  0  0  0  0
    7.7800   12.1420   25.0790 C   0  0  0  0  0  0  0  0  0  0  0  0
    7.9350   10.7990   24.6990 C   0  0  0  0  0  0  0  0  0  0  0  0
    9.0570   10.3680   23.7840 C   0  0  0  0  0  0  0  0  0  0  0  0
   10.0900    9.7310   24.4910 O   0  0  0  0  0  0  0  0  0  0  0  0
    7.0420    9.8520   25.1880 C   0  0  0  0  0  0  0  0  0  0  0  0
    6.0100   10.2190   26.0370 C   0  0  0  0  0  0  0  0  0  0  0  0
    5.8490   11.5330   26.3960 C   0  0  0  0  0  0  0  0  0  0  0  0
    6.7230   12.4910   25.9170 C   0  0  0  0  0  0  0  0  0  0  0  0
 11  9  1  0
 10  9  2  0
  8  9  1  6
  8  6  1  0
  6  5  1  0
  5  4  1  0
  4  3  1  0
  3  2  1  0
  2  1  2  0
 12  2  1  0
 13 12  1  0
 13 20  2  0
 20 19  1  0
 19 18  2  0
 18 17  1  0
 17 14  2  0
 14 13  1  0
 15 14  1  0
 16 15  1  0
  7  3  1  0
  8  7  1  0
M  END
>  <smiles>  (149) 
NC(=O)[C@H]1CCCN(C(=O)Cc2ccccc2CO)C1

>  <inchikey>  (149) 
ZCVSMWFZKMVPLV-LBPRGKRZSA-N

>  <alias>  (149) 
A4374a

$$$$
A4374b
     RDKit          3D

 20 21  0  0  0  0  0  0  0  0999 V2000
    7.9700   13.2540   22.6770 O   0  0  0  0  0  0  0  0  0  0  0  0
    8.8560   13.7260   23.3790 C   0  0  0  0  0  0  0  0  0  0  0  0
    9.6670   14.7200   22.9440 N   0  0  0  0  0  0  0  0  0  0  0  0
   10.7190   15.3790   23.7390 C   0  0  0  0  0  0  0  0  0  0  0  0
   12.0740   15.2660   23.0430 C   0  0  0  0  0  0  0  0  0  0  0  0
   11.9920   15.7470   21.5910 C   0  0  0  0  0  0  0  0  0  0  0  0
    9.5530   15.2400   21.5790 C   0  0  0  0  0  0  0  0  0  0  0  0
   10.8700   15.0200   20.8300 C   0  0  1  0  0  0  0  0  0  0  0  0
   10.7330   15.5460   19.4130 C   0  0  0  0  0  0  0  0  0  0  0  0
   10.3770   16.7140   19.1980 O   0  0  0  0  0  0  0  0  0  0  0  0
   10.9940   14.6730   18.4460 N   0  0  0  0  0  0  0  0  0  0  0  0
    9.1100   13.2090   24.7860 C   0  0  0  0  0  0  0  0  0  0  0  0
    8.1230   12.1410   25.2120 C   0  0  0  0  0  0  0  0  0  0  0  0
    8.2470   10.8010   24.8070 C   0  0  0  0  0  0  0  0  0  0  0  0
    9.3180   10.3670   23.8360 C   0  0  0  0  0  0  0  0  0  0  0  0
   10.3620    9.7030   24.5020 O   0  0  0  0  0  0  0  0  0  0  0  0
    7.3650    9.8490   25.3180 C   0  0  0  0  0  0  0  0  0  0  0  0
    6.3680   10.2130   26.2100 C   0  0  0  0  0  0  0  0  0  0  0  0
    6.2380   11.5260   26.5960 C   0  0  0  0  0  0  0  0  0  0  0  0
    7.1070   12.4830   26.1020 C   0  0  0  0  0  0  0  0  0  0  0  0
 11  9  1  0
 10  9  2  0
  8  9  1  6
  8  6  1  0
  6  5  1  0
  5  4  1  0
  4  3  1  0
  3  2  1  0
  2  1  2  0
 12  2  1  0
 13 12  1  0
 13 20  2  0
 20 19  1  0
 19 18  2  0
 18 17  1  0
 17 14  2  0
 14 13  1  0
 15 14  1  0
 16 15  1  0
  7  3  1  0
  8  7  1  0
M  END
>  <smiles>  (150) 
NC(=O)[C@H]1CCCN(C(=O)Cc2ccccc2CO)C1

>  <inchikey>  (150) 
ZCVSMWFZKMVPLV-LBPRGKRZSA-N

>  <alias>  (150) 
A4374b

$$$$
A4214a
     RDKit          3D

 20 21  0  0  0  0  0  0  0  0999 V2000
   10.1760   16.5570   19.4200 O   0  0  0  0  0  0  0  0  0  0  0  0
   10.5680   15.4090   19.6420 C   0  0  0  0  0  0  0  0  0  0  0  0
   10.8510   14.5450   18.6750 N   0  0  0  0  0  0  0  0  0  0  0  0
   10.7340   14.9030   21.0650 C   0  0  1  0  0  0  0  0  0  0  0  0
   12.0170   15.4630   21.6930 C   0  0  0  0  0  0  0  0  0  0  0  0
   12.2070   14.9410   23.1170 C   0  0  0  0  0  0  0  0  0  0  0  0
   11.0040   15.2700   23.9720 C   0  0  0  0  0  0  0  0  0  0  0  0
    9.5510   15.2920   21.9630 C   0  0  0  0  0  0  0  0  0  0  0  0
    9.7810   14.7600   23.3210 N   0  0  0  0  0  0  0  0  0  0  0  0
    8.5170   14.4080   24.2850 S   0  0  0  0  0  0  0  0  0  0  0  0
    7.3440   14.9140   23.6370 O   0  0  0  0  0  0  0  0  0  0  0  0
    8.8570   14.8480   25.6030 O   0  0  0  0  0  0  0  0  0  0  0  0
    8.4450   12.6450   24.3000 C   0  0  0  0  0  0  0  0  0  0  0  0
    7.5310   11.9790   25.1250 C   0  0  0  0  0  0  0  0  0  0  0  0
    6.6880   12.7810   25.8570 O   0  0  0  0  0  0  0  0  0  0  0  0
    5.7270   12.1550   26.7140 C   0  0  0  0  0  0  0  0  0  0  0  0
    9.3610   11.9360   23.5350 C   0  0  0  0  0  0  0  0  0  0  0  0
    9.3660   10.5550   23.5930 C   0  0  0  0  0  0  0  0  0  0  0  0
    8.4690    9.8910   24.3930 C   0  0  0  0  0  0  0  0  0  0  0  0
    7.5530   10.5930   25.1670 C   0  0  0  0  0  0  0  0  0  0  0  0
 16 15  1  0
 15 14  1  0
 14 20  2  0
 20 19  1  0
 19 18  2  0
 18 17  1  0
 17 13  2  0
 14 13  1  0
 13 10  1  0
 11 10  2  0
 12 10  2  0
 10  9  1  0
  9  7  1  0
  7  6  1  0
  6  5  1  0
  5  4  1  0
  4  2  1  6
  3  2  1  0
  2  1  2  0
  8  4  1  0
  9  8  1  0
M  END
>  <smiles>  (151) 
COc1ccccc1S(=O)(=O)N1CCC[C@H](C(N)=O)C1

>  <inchikey>  (151) 
QKOJMHTYLAMSOM-JTQLQIEISA-N

>  <alias>  (151) 
A4214a

$$$$
A4214b
     RDKit          3D

 20 21  0  0  0  0  0  0  0  0999 V2000
   10.2320   16.6190   19.4100 O   0  0  0  0  0  0  0  0  0  0  0  0
   10.6140   15.4630   19.6330 C   0  0  0  0  0  0  0  0  0  0  0  0
   10.8520   14.5810   18.6730 N   0  0  0  0  0  0  0  0  0  0  0  0
   10.8030   14.9580   21.0550 C   0  0  1  0  0  0  0  0  0  0  0  0
   12.1010   15.5190   21.6610 C   0  0  0  0  0  0  0  0  0  0  0  0
   12.3000   15.0430   23.0980 C   0  0  0  0  0  0  0  0  0  0  0  0
   11.0910   15.3950   23.9440 C   0  0  0  0  0  0  0  0  0  0  0  0
    9.6200   15.3510   21.9490 C   0  0  0  0  0  0  0  0  0  0  0  0
    9.8770   14.8430   23.3100 N   0  0  0  0  0  0  0  0  0  0  0  0
    8.6160   14.4720   24.2680 S   0  0  0  0  0  0  0  0  0  0  0  0
    7.4380   14.9660   23.6220 O   0  0  0  0  0  0  0  0  0  0  0  0
    8.9470   14.9090   25.5900 O   0  0  0  0  0  0  0  0  0  0  0  0
    8.5410   12.7020   24.2790 C   0  0  0  0  0  0  0  0  0  0  0  0
    7.6270   12.0310   25.0970 C   0  0  0  0  0  0  0  0  0  0  0  0
    6.7880   12.8220   25.8370 O   0  0  0  0  0  0  0  0  0  0  0  0
    5.8010   12.1810   26.6610 C   0  0  0  0  0  0  0  0  0  0  0  0
    9.4600   11.9960   23.5120 C   0  0  0  0  0  0  0  0  0  0  0  0
    9.4670   10.6120   23.5690 C   0  0  0  0  0  0  0  0  0  0  0  0
    8.5680    9.9460   24.3660 C   0  0  0  0  0  0  0  0  0  0  0  0
    7.6500   10.6450   25.1350 C   0  0  0  0  0  0  0  0  0  0  0  0
 16 15  1  0
 15 14  1  0
 14 20  2  0
 20 19  1  0
 19 18  2  0
 18 17  1  0
 17 13  2  0
 14 13  1  0
 13 10  1  0
 11 10  2  0
 12 10  2  0
 10  9  1  0
  9  7  1  0
  7  6  1  0
  6  5  1  0
  5  4  1  0
  4  2  1  6
  3  2  1  0
  2  1  2  0
  8  4  1  0
  9  8  1  0
M  END
>  <smiles>  (152) 
COc1ccccc1S(=O)(=O)N1CCC[C@H](C(N)=O)C1

>  <inchikey>  (152) 
QKOJMHTYLAMSOM-JTQLQIEISA-N

>  <alias>  (152) 
A4214b

$$$$
A4237a
     RDKit          3D

 26 28  0  0  0  0  0  0  0  0999 V2000
    7.0620   19.1480   27.0320 F   0  0  0  0  0  0  0  0  0  0  0  0
    7.0240   17.8430   26.6600 C   0  0  0  0  0  0  0  0  0  0  0  0
    7.5710   16.9070   27.4910 C   0  0  0  0  0  0  0  0  0  0  0  0
    7.5490   15.5830   27.0900 C   0  0  0  0  0  0  0  0  0  0  0  0
    6.4490   17.5240   25.4650 C   0  0  0  0  0  0  0  0  0  0  0  0
    6.4400   16.1960   25.0780 C   0  0  0  0  0  0  0  0  0  0  0  0
    6.9900   15.2090   25.8790 C   0  0  0  0  0  0  0  0  0  0  0  0
    6.9830   13.7640   25.4390 C   0  0  0  0  0  0  0  0  0  0  0  0
    8.2580   13.3580   24.6670 C   0  0  1  0  0  0  0  0  0  0  0  0
    8.4100   11.8630   24.4350 C   0  0  0  0  0  0  0  0  0  0  0  0
    7.5310   10.9470   24.9910 C   0  0  0  0  0  0  0  0  0  0  0  0
    7.7280    9.5890   24.8180 C   0  0  0  0  0  0  0  0  0  0  0  0
    8.8090    9.1320   24.0980 C   0  0  0  0  0  0  0  0  0  0  0  0
    9.6690   10.0260   23.5190 C   0  0  0  0  0  0  0  0  0  0  0  0
    9.4710   11.3850   23.6800 C   0  0  0  0  0  0  0  0  0  0  0  0
    8.2110   13.9100   23.2440 C   0  0  0  0  0  0  0  0  0  0  0  0
    7.3840   13.4890   22.4520 O   0  0  0  0  0  0  0  0  0  0  0  0
    9.1180   14.8440   22.8880 N   0  0  0  0  0  0  0  0  0  0  0  0
   10.1670   15.4010   23.7580 C   0  0  0  0  0  0  0  0  0  0  0  0
   11.5570   15.1460   23.1770 C   0  0  0  0  0  0  0  0  0  0  0  0
   11.6340   15.6080   21.7200 C   0  0  0  0  0  0  0  0  0  0  0  0
    9.1540   15.3700   21.5230 C   0  0  0  0  0  0  0  0  0  0  0  0
   10.4950   15.0080   20.8830 C   0  0  1  0  0  0  0  0  0  0  0  0
   10.5340   15.5050   19.4480 C   0  0  0  0  0  0  0  0  0  0  0  0
   10.2600   16.6760   19.1720 O   0  0  0  0  0  0  0  0  0  0  0  0
   10.8460   14.6030   18.5330 N   0  0  0  0  0  0  0  0  0  0  0  0
 26 24  1  0
 25 24  2  0
 23 24  1  6
 23 21  1  0
 21 20  1  0
 20 19  1  0
 19 18  1  0
 18 16  1  0
 17 16  2  0
 16  9  1  0
  9  8  1  6
  8  7  1  0
  7  4  2  0
  4  3  1  0
  3  2  2  0
  2  1  1  0
  5  2  1  0
  6  5  2  0
  7  6  1  0
 10  9  1  0
 10 15  2  0
 15 14  1  0
 14 13  2  0
 13 12  1  0
 12 11  2  0
 11 10  1  0
 22 18  1  0
 23 22  1  0
M  END
>  <smiles>  (153) 
NC(=O)[C@H]1CCCN(C(=O)[C@@H](Cc2ccc(F)cc2)c2ccccc2)C1

>  <inchikey>  (153) 
BJVLTIUJQBTOEQ-HKUYNNGSSA-N

>  <alias>  (153) 
A4237a

$$$$
A4237b
     RDKit          3D

 26 28  0  0  0  0  0  0  0  0999 V2000
    8.8270   19.0800   27.0420 F   0  0  0  0  0  0  0  0  0  0  0  0
    8.4350   17.7980   26.8060 C   0  0  0  0  0  0  0  0  0  0  0  0
    9.0770   16.7880   27.4620 C   0  0  0  0  0  0  0  0  0  0  0  0
    8.7250   15.4840   27.1600 C   0  0  0  0  0  0  0  0  0  0  0  0
    7.4400   17.5750   25.8990 C   0  0  0  0  0  0  0  0  0  0  0  0
    7.1060   16.2650   25.6030 C   0  0  0  0  0  0  0  0  0  0  0  0
    7.7680   15.2020   26.1970 C   0  0  0  0  0  0  0  0  0  0  0  0
    7.6100   13.8030   25.6610 C   0  0  0  0  0  0  0  0  0  0  0  0
    8.8090   13.3920   24.7810 C   0  0  1  0  0  0  0  0  0  0  0  0
    8.9450   11.9030   24.5150 C   0  0  0  0  0  0  0  0  0  0  0  0
    9.9740   11.4320   23.7100 C   0  0  0  0  0  0  0  0  0  0  0  0
   10.1210   10.0780   23.4710 C   0  0  0  0  0  0  0  0  0  0  0  0
    9.2450    9.1800   24.0260 C   0  0  0  0  0  0  0  0  0  0  0  0
    8.2110    9.6310   24.8140 C   0  0  0  0  0  0  0  0  0  0  0  0
    8.0570   10.9850   25.0530 C   0  0  0  0  0  0  0  0  0  0  0  0
    8.6220   13.9690   23.3800 C   0  0  0  0  0  0  0  0  0  0  0  0
    7.7270   13.5400   22.6650 O   0  0  0  0  0  0  0  0  0  0  0  0
    9.4800   14.9230   22.9540 N   0  0  0  0  0  0  0  0  0  0  0  0
   10.5170   15.5780   23.7690 C   0  0  0  0  0  0  0  0  0  0  0  0
   11.9070   15.3690   23.1650 C   0  0  0  0  0  0  0  0  0  0  0  0
   11.9310   15.7630   21.6850 C   0  0  0  0  0  0  0  0  0  0  0  0
    9.4640   15.3740   21.5600 C   0  0  0  0  0  0  0  0  0  0  0  0
   10.8110   15.0620   20.8990 C   0  0  1  0  0  0  0  0  0  0  0  0
   10.7590   15.5300   19.4540 C   0  0  0  0  0  0  0  0  0  0  0  0
   10.4250   16.6870   19.1710 O   0  0  0  0  0  0  0  0  0  0  0  0
   11.0050   14.6030   18.5370 N   0  0  0  0  0  0  0  0  0  0  0  0
 26 24  1  0
 25 24  2  0
 23 24  1  6
 23 21  1  0
 21 20  1  0
 20 19  1  0
 19 18  1  0
 18 16  1  0
 17 16  2  0
 16  9  1  0
  9  8  1  1
  8  7  1  0
  7  4  2  0
  4  3  1  0
  3  2  2  0
  2  1  1  0
  5  2  1  0
  6  5  2  0
  7  6  1  0
 10  9  1  0
 10 15  2  0
 15 14  1  0
 14 13  2  0
 13 12  1  0
 12 11  2  0
 11 10  1  0
 22 18  1  0
 23 22  1  0
M  END
>  <smiles>  (154) 
NC(=O)[C@H]1CCCN(C(=O)[C@@H](Cc2ccc(F)cc2)c2ccccc2)C1

>  <inchikey>  (154) 
BJVLTIUJQBTOEQ-HKUYNNGSSA-N

>  <alias>  (154) 
A4237b

$$$$
A4274a
     RDKit          3D

 18 19  0  0  0  0  0  0  0  0999 V2000
   10.2800   16.6230   19.4630 O   0  0  0  0  0  0  0  0  0  0  0  0
   10.6460   15.4620   19.6890 C   0  0  0  0  0  0  0  0  0  0  0  0
   10.9640   14.6130   18.7190 N   0  0  0  0  0  0  0  0  0  0  0  0
   10.6990   14.9170   21.1060 C   0  0  1  0  0  0  0  0  0  0  0  0
   11.6790   15.7050   21.9920 C   0  0  0  0  0  0  0  0  0  0  0  0
   11.6650   15.1350   23.4120 C   0  0  0  0  0  0  0  0  0  0  0  0
   10.2550   15.0880   23.9650 C   0  0  0  0  0  0  0  0  0  0  0  0
    9.2860   14.9180   21.7050 C   0  0  0  0  0  0  0  0  0  0  0  0
    9.2890   14.3970   23.0910 N   0  0  0  0  0  0  0  0  0  0  0  0
    9.4840   12.9360   23.1530 C   0  0  0  0  0  0  0  0  0  0  0  0
    8.4760   12.2440   24.0480 C   0  0  0  0  0  0  0  0  0  0  0  0
    8.3650   10.8560   24.0530 C   0  0  0  0  0  0  0  0  0  0  0  0
    9.1800   10.2240   23.1660 O   0  0  0  0  0  0  0  0  0  0  0  0
    9.1620    8.7760   23.1400 C   0  0  0  0  0  0  0  0  0  0  0  0
    7.7130   13.0030   24.8460 N   0  0  0  0  0  0  0  0  0  0  0  0
    6.8390   12.3990   25.6680 C   0  0  0  0  0  0  0  0  0  0  0  0
    6.6750   11.0350   25.7300 C   0  0  0  0  0  0  0  0  0  0  0  0
    7.4460   10.2390   24.8950 C   0  0  0  0  0  0  0  0  0  0  0  0
 14 13  1  0
 13 12  1  0
 12 18  2  0
 18 17  1  0
 17 16  2  0
 16 15  1  0
 15 11  2  0
 12 11  1  0
 11 10  1  0
 10  9  1  0
  9  7  1  0
  7  6  1  0
  6  5  1  0
  5  4  1  0
  4  2  1  6
  3  2  1  0
  2  1  2  0
  8  4  1  0
  9  8  1  0
M  END
>  <smiles>  (155) 
COc1cccnc1CN1CCC[C@H](C(N)=O)C1

>  <inchikey>  (155) 
NASHQEPHZGSRGM-JTQLQIEISA-N

>  <alias>  (155) 
A4274a

$$$$
A4274b
     RDKit          3D

 18 19  0  0  0  0  0  0  0  0999 V2000
   10.4010   16.5950   19.3790 O   0  0  0  0  0  0  0  0  0  0  0  0
   10.7870   15.4310   19.5980 C   0  0  0  0  0  0  0  0  0  0  0  0
   11.0260   14.5570   18.6220 N   0  0  0  0  0  0  0  0  0  0  0  0
   10.9410   14.9070   21.0150 C   0  0  1  0  0  0  0  0  0  0  0  0
   11.9540   15.7240   21.8380 C   0  0  0  0  0  0  0  0  0  0  0  0
   12.0410   15.1690   23.2610 C   0  0  0  0  0  0  0  0  0  0  0  0
   10.6780   15.1490   23.9160 C   0  0  0  0  0  0  0  0  0  0  0  0
    9.5740   14.9120   21.7100 C   0  0  0  0  0  0  0  0  0  0  0  0
    9.6780   14.4030   23.0990 N   0  0  0  0  0  0  0  0  0  0  0  0
    9.8800   12.9330   23.1600 C   0  0  0  0  0  0  0  0  0  0  0  0
    8.9470   12.2380   24.1280 C   0  0  0  0  0  0  0  0  0  0  0  0
    8.8070   10.8490   24.1270 C   0  0  0  0  0  0  0  0  0  0  0  0
    9.5510   10.2030   23.1990 O   0  0  0  0  0  0  0  0  0  0  0  0
    9.5140    8.7500   23.1830 C   0  0  0  0  0  0  0  0  0  0  0  0
    8.2790   13.0070   25.0000 N   0  0  0  0  0  0  0  0  0  0  0  0
    7.4440   12.4080   25.8750 C   0  0  0  0  0  0  0  0  0  0  0  0
    7.2400   11.0420   25.9150 C   0  0  0  0  0  0  0  0  0  0  0  0
    7.9350   10.2410   25.0210 C   0  0  0  0  0  0  0  0  0  0  0  0
 14 13  1  0
 13 12  1  0
 12 18  2  0
 18 17  1  0
 17 16  2  0
 16 15  1  0
 15 11  2  0
 12 11  1  0
 11 10  1  0
 10  9  1  0
  9  7  1  0
  7  6  1  0
  6  5  1  0
  5  4  1  0
  4  2  1  6
  3  2  1  0
  2  1  2  0
  8  4  1  0
  9  8  1  0
M  END
>  <smiles>  (156) 
COc1cccnc1CN1CCC[C@H](C(N)=O)C1

>  <inchikey>  (156) 
NASHQEPHZGSRGM-JTQLQIEISA-N

>  <alias>  (156) 
A4274b

$$$$
A4388a
     RDKit          3D

 21 22  0  0  0  0  0  0  0  0999 V2000
   10.3410   16.6040   19.2330 O   0  0  0  0  0  0  0  0  0  0  0  0
   10.7390   15.4550   19.4500 C   0  0  0  0  0  0  0  0  0  0  0  0
   11.0500   14.6160   18.4880 N   0  0  0  0  0  0  0  0  0  0  0  0
   10.8080   14.8980   20.8620 C   0  0  1  0  0  0  0  0  0  0  0  0
   11.9790   15.4930   21.6640 C   0  0  0  0  0  0  0  0  0  0  0  0
   12.0330   14.9290   23.0930 C   0  0  0  0  0  0  0  0  0  0  0  0
   10.6860   15.0900   23.7790 C   0  0  0  0  0  0  0  0  0  0  0  0
    9.4910   15.0720   21.6220 C   0  0  0  0  0  0  0  0  0  0  0  0
    9.6190   14.4880   22.9620 N   0  0  0  0  0  0  0  0  0  0  0  0
    8.8430   13.4610   23.3630 C   0  0  0  0  0  0  0  0  0  0  0  0
    7.9260   13.0320   22.6800 O   0  0  0  0  0  0  0  0  0  0  0  0
    9.1620   12.8720   24.7240 C   0  0  0  0  0  0  0  0  0  0  0  0
    8.2110   11.7570   25.0820 C   0  0  0  0  0  0  0  0  0  0  0  0
    8.2960   10.4410   24.5840 C   0  0  0  0  0  0  0  0  0  0  0  0
    9.3150   10.2390   23.7140 O   0  0  0  0  0  0  0  0  0  0  0  0
    9.5980    8.8950   23.3030 C   0  0  0  0  0  0  0  0  0  0  0  0
    7.2020   11.9980   26.0060 C   0  0  0  0  0  0  0  0  0  0  0  0
    6.3690   10.9700   26.3740 C   0  0  0  0  0  0  0  0  0  0  0  0
    4.9760   11.3070   27.6140 Br  0  0  0  0  0  0  0  0  0  0  0  0
    6.5370    9.7180   25.8460 C   0  0  0  0  0  0  0  0  0  0  0  0
    7.4940    9.4450   24.9470 N   0  0  0  0  0  0  0  0  0  0  0  0
 16 15  1  0
 15 14  1  0
 14 21  2  0
 21 20  1  0
 20 18  2  0
 19 18  1  0
 18 17  1  0
 17 13  2  0
 14 13  1  0
 13 12  1  0
 12 10  1  0
 11 10  2  0
 10  9  1  0
  9  7  1  0
  7  6  1  0
  6  5  1  0
  5  4  1  0
  4  2  1  6
  3  2  1  0
  2  1  2  0
  8  4  1  0
  9  8  1  0
M  END
>  <smiles>  (157) 
COc1ncc(Br)cc1CC(=O)N1CCC[C@H](C(N)=O)C1

>  <inchikey>  (157) 
ZJPNDTHCVMYTGE-VIFPVBQESA-N

>  <alias>  (157) 
A4388a

$$$$
A4418a
     RDKit          3D

 19 20  0  0  0  0  0  0  0  0999 V2000
   11.2280   14.6100   18.3660 O   0  0  0  0  0  0  0  0  0  0  0  0
   10.9160   15.3200   19.3440 C   0  0  0  0  0  0  0  0  0  0  0  0
   10.3950   16.5220   19.2070 N   0  0  0  0  0  0  0  0  0  0  0  0
   11.1100   14.8300   20.7730 C   0  0  1  0  0  0  0  0  0  0  0  0
   11.9230   15.7230   21.7470 C   0  0  0  0  0  0  0  0  0  0  0  0
   11.6100   15.1440   23.1120 C   0  0  0  0  0  0  0  0  0  0  0  0
    9.7940   14.6510   21.5420 C   0  0  0  0  0  0  0  0  0  0  0  0
   10.2390   14.6120   22.9430 N   0  0  0  0  0  0  0  0  0  0  0  0
    9.5900   13.9740   23.9550 C   0  0  0  0  0  0  0  0  0  0  0  0
   10.0790   13.8460   25.0810 O   0  0  0  0  0  0  0  0  0  0  0  0
    8.3340   13.5110   23.6680 N   0  0  0  0  0  0  0  0  0  0  0  0
    7.6320   12.6210   24.5310 C   0  0  0  0  0  0  0  0  0  0  0  0
    7.9230   11.2440   24.4300 C   0  0  0  0  0  0  0  0  0  0  0  0
    8.8620   10.8880   23.5120 O   0  0  0  0  0  0  0  0  0  0  0  0
    9.1470    9.4820   23.3550 C   0  0  0  0  0  0  0  0  0  0  0  0
    6.6650   13.0410   25.4270 C   0  0  0  0  0  0  0  0  0  0  0  0
    6.0150   12.0720   26.1830 C   0  0  0  0  0  0  0  0  0  0  0  0
    6.3550   10.7490   26.0100 C   0  0  0  0  0  0  0  0  0  0  0  0
    7.2970   10.3230   25.1530 N   0  0  0  0  0  0  0  0  0  0  0  0
 15 14  1  0
 14 13  1  0
 13 19  2  0
 19 18  1  0
 18 17  2  0
 17 16  1  0
 16 12  2  0
 13 12  1  0
 12 11  1  0
 11  9  1  0
 10  9  2  0
  9  8  1  0
  8  6  1  0
  6  5  1  0
  5  4  1  0
  4  2  1  6
  3  2  1  0
  2  1  2  0
  7  4  1  0
  8  7  1  0
M  END
>  <smiles>  (158) 
COc1ncccc1NC(=O)N1CC[C@H](C(N)=O)C1

>  <inchikey>  (158) 
IOCUHOZGYZOKAP-QMMMGPOBSA-N

>  <alias>  (158) 
A4418a

$$$$
A4421a
     RDKit          3D

 19 20  0  0  0  0  0  0  0  0999 V2000
   10.3110   16.4510   19.3420 O   0  0  0  0  0  0  0  0  0  0  0  0
   10.8910   15.3660   19.4690 C   0  0  0  0  0  0  0  0  0  0  0  0
   11.2570   14.6130   18.4360 N   0  0  0  0  0  0  0  0  0  0  0  0
   11.1520   14.7750   20.8440 C   0  0  1  0  0  0  0  0  0  0  0  0
   11.8920   15.6950   21.8340 C   0  0  0  0  0  0  0  0  0  0  0  0
   11.6340   15.0250   23.1810 C   0  0  0  0  0  0  0  0  0  0  0  0
    9.8480   14.5030   21.6140 C   0  0  0  0  0  0  0  0  0  0  0  0
   10.2920   14.4600   23.0150 N   0  0  0  0  0  0  0  0  0  0  0  0
    9.5610   13.9810   24.0420 C   0  0  0  0  0  0  0  0  0  0  0  0
    9.9910   13.9570   25.1920 O   0  0  0  0  0  0  0  0  0  0  0  0
    8.1630   13.4970   23.6960 C   0  0  0  0  0  0  0  0  0  0  0  0
    7.6400   12.4580   24.6650 C   0  0  0  0  0  0  0  0  0  0  0  0
    7.9200   11.1040   24.4740 C   0  0  0  0  0  0  0  0  0  0  0  0
    8.8080   10.8310   23.4670 O   0  0  0  0  0  0  0  0  0  0  0  0
    9.2210    9.4600   23.2830 C   0  0  0  0  0  0  0  0  0  0  0  0
    6.7460   12.7630   25.6770 C   0  0  0  0  0  0  0  0  0  0  0  0
    6.1080   11.8600   26.4340 N   0  0  0  0  0  0  0  0  0  0  0  0
    6.3850   10.5750   26.2040 C   0  0  0  0  0  0  0  0  0  0  0  0
    7.2860   10.1430   25.2500 C   0  0  0  0  0  0  0  0  0  0  0  0
 15 14  1  0
 14 13  1  0
 13 19  2  0
 19 18  1  0
 18 17  2  0
 17 16  1  0
 16 12  2  0
 13 12  1  0
 12 11  1  0
 11  9  1  0
 10  9  2  0
  9  8  1  0
  8  6  1  0
  6  5  1  0
  5  4  1  0
  4  2  1  6
  3  2  1  0
  2  1  2  0
  7  4  1  0
  8  7  1  0
M  END
>  <smiles>  (159) 
COc1ccncc1CC(=O)N1CC[C@H](C(N)=O)C1

>  <inchikey>  (159) 
GNWVDSWMINQMLL-VIFPVBQESA-N

>  <alias>  (159) 
A4421a

$$$$
A4445a
     RDKit          3D

 21 22  0  0  0  0  0  0  0  0999 V2000
   10.1300   16.5490   19.3600 O   0  0  0  0  0  0  0  0  0  0  0  0
   10.4710   15.3860   19.5830 C   0  0  0  0  0  0  0  0  0  0  0  0
   10.7600   14.5370   18.6040 N   0  0  0  0  0  0  0  0  0  0  0  0
   10.6090   14.8700   21.0050 C   0  0  1  0  0  0  0  0  0  0  0  0
   11.7840   15.5360   21.7410 C   0  0  0  0  0  0  0  0  0  0  0  0
   11.9150   14.9800   23.1580 C   0  0  0  0  0  0  0  0  0  0  0  0
   10.5740   15.0480   23.9030 C   0  0  0  0  0  0  0  0  0  0  0  0
    9.3150   15.0030   21.8140 C   0  0  0  0  0  0  0  0  0  0  0  0
    9.4950   14.4030   23.1420 N   0  0  0  0  0  0  0  0  0  0  0  0
    8.6950   13.3640   23.5160 C   0  0  0  0  0  0  0  0  0  0  0  0
    7.7200   13.0480   22.8440 O   0  0  0  0  0  0  0  0  0  0  0  0
    9.0370   12.5340   24.7500 C   0  0  1  0  0  0  0  0  0  0  0  0
   10.3010   13.0010   25.4750 C   0  0  0  0  0  0  0  0  0  0  0  0
    7.8390   12.4220   25.6890 C   0  0  0  0  0  0  0  0  0  0  0  0
    7.3530   13.5520   26.3500 C   0  0  0  0  0  0  0  0  0  0  0  0
    8.0440   14.7090   26.1100 O   0  0  0  0  0  0  0  0  0  0  0  0
    7.5640   15.9110   26.7280 C   0  0  0  0  0  0  0  0  0  0  0  0
    7.2020   11.2080   25.9130 C   0  0  0  0  0  0  0  0  0  0  0  0
    6.0820   11.1300   26.7230 C   0  0  0  0  0  0  0  0  0  0  0  0
    5.6100   12.2510   27.3610 C   0  0  0  0  0  0  0  0  0  0  0  0
    6.2490   13.4690   27.1960 C   0  0  0  0  0  0  0  0  0  0  0  0
 17 16  1  0
 16 15  1  0
 15 21  2  0
 21 20  1  0
 20 19  2  0
 19 18  1  0
 18 14  2  0
 15 14  1  0
 14 12  1  0
 12 13  1  1
 12 10  1  0
 11 10  2  0
 10  9  1  0
  9  7  1  0
  7  6  1  0
  6  5  1  0
  5  4  1  0
  4  2  1  6
  3  2  1  0
  2  1  2  0
  8  4  1  0
  9  8  1  0
M  END
>  <smiles>  (160) 
COc1ccccc1[C@H](C)C(=O)N1CCC[C@H](C(N)=O)C1

>  <inchikey>  (160) 
PMVJSDCMAGKMNB-RYUDHWBXSA-N

>  <alias>  (160) 
A4445a

$$$$
A4445b
     RDKit          3D

 21 22  0  0  0  0  0  0  0  0999 V2000
   10.2460   16.6790   19.3080 O   0  0  0  0  0  0  0  0  0  0  0  0
   10.5800   15.5020   19.5380 C   0  0  0  0  0  0  0  0  0  0  0  0
   10.8380   14.6230   18.5710 N   0  0  0  0  0  0  0  0  0  0  0  0
   10.7200   14.9970   20.9640 C   0  0  1  0  0  0  0  0  0  0  0  0
   11.8600   15.7240   21.7050 C   0  0  0  0  0  0  0  0  0  0  0  0
   11.9770   15.1950   23.1360 C   0  0  0  0  0  0  0  0  0  0  0  0
   10.6130   15.2750   23.8520 C   0  0  0  0  0  0  0  0  0  0  0  0
    9.4080   15.1190   21.7520 C   0  0  0  0  0  0  0  0  0  0  0  0
    9.5680   14.5560   23.1000 N   0  0  0  0  0  0  0  0  0  0  0  0
    8.7850   13.4810   23.4560 C   0  0  0  0  0  0  0  0  0  0  0  0
    7.8100   13.1410   22.7780 O   0  0  0  0  0  0  0  0  0  0  0  0
    9.1370   12.6520   24.6880 C   0  0  1  0  0  0  0  0  0  0  0  0
   10.3720   13.1670   25.4280 C   0  0  0  0  0  0  0  0  0  0  0  0
    7.9180   12.4790   25.5900 C   0  0  0  0  0  0  0  0  0  0  0  0
    7.3970   13.5790   26.2710 C   0  0  0  0  0  0  0  0  0  0  0  0
    8.0370   14.7630   26.0300 O   0  0  0  0  0  0  0  0  0  0  0  0
    7.6020   15.9240   26.7450 C   0  0  0  0  0  0  0  0  0  0  0  0
    7.2910   11.2470   25.7550 C   0  0  0  0  0  0  0  0  0  0  0  0
    6.1710   11.1210   26.5630 C   0  0  0  0  0  0  0  0  0  0  0  0
    5.6920   12.2080   27.2510 C   0  0  0  0  0  0  0  0  0  0  0  0
    6.3030   13.4430   27.1200 C   0  0  0  0  0  0  0  0  0  0  0  0
 17 16  1  0
 16 15  1  0
 15 21  2  0
 21 20  1  0
 20 19  2  0
 19 18  1  0
 18 14  2  0
 15 14  1  0
 14 12  1  0
 12 13  1  1
 12 10  1  0
 11 10  2  0
 10  9  1  0
  9  7  1  0
  7  6  1  0
  6  5  1  0
  5  4  1  0
  4  2  1  6
  3  2  1  0
  2  1  2  0
  8  4  1  0
  9  8  1  0
M  END
>  <smiles>  (161) 
COc1ccccc1[C@H](C)C(=O)N1CCC[C@H](C(N)=O)C1

>  <inchikey>  (161) 
PMVJSDCMAGKMNB-RYUDHWBXSA-N

>  <alias>  (161) 
A4445b

$$$$
A4456a
     RDKit          3D

 21 23  0  0  0  0  0  0  0  0999 V2000
    7.5770   13.3890   22.4230 O   0  0  0  0  0  0  0  0  0  0  0  0
    8.5050   13.6060   23.1390 C   0  0  0  0  0  0  0  0  0  0  0  0
    9.3950   14.6210   22.9130 N   0  0  0  0  0  0  0  0  0  0  0  0
   10.4420   15.2470   23.7470 C   0  0  0  0  0  0  0  0  0  0  0  0
   11.8240   15.1810   23.0910 C   0  0  0  0  0  0  0  0  0  0  0  0
   11.7840   15.7250   21.6520 C   0  0  0  0  0  0  0  0  0  0  0  0
    9.3550   15.2100   21.5680 C   0  0  0  0  0  0  0  0  0  0  0  0
   10.6850   14.9880   20.8480 C   0  0  1  0  0  0  0  0  0  0  0  0
   10.5970   15.4990   19.4200 C   0  0  0  0  0  0  0  0  0  0  0  0
   10.2250   16.6490   19.1750 O   0  0  0  0  0  0  0  0  0  0  0  0
   10.9290   14.6270   18.4660 N   0  0  0  0  0  0  0  0  0  0  0  0
    8.8130   12.3160   23.8820 C   0  0  2  0  0  0  0  0  0  0  0  0
    7.8670   12.0320   25.0260 C   0  0  0  0  0  0  0  0  0  0  0  0
    8.0640   10.6580   24.9530 C   0  0  0  0  0  0  0  0  0  0  0  0
    9.5170   10.4380   24.5830 C   0  0  0  0  0  0  0  0  0  0  0  0
   10.0110   11.8730   24.4020 C   0  0  0  0  0  0  0  0  0  0  0  0
    6.7370   12.5350   25.6840 C   0  0  0  0  0  0  0  0  0  0  0  0
    6.5470   13.8680   25.8880 O   0  0  0  0  0  0  0  0  0  0  0  0
    5.7720   11.6490   26.1760 C   0  0  0  0  0  0  0  0  0  0  0  0
    5.9180   10.2810   25.9730 C   0  0  0  0  0  0  0  0  0  0  0  0
    7.0590    9.7870   25.3550 C   0  0  0  0  0  0  0  0  0  0  0  0
 11  9  1  0
 10  9  2  0
  8  9  1  6
  8  6  1  0
  6  5  1  0
  5  4  1  0
  4  3  1  0
  3  2  1  0
  2  1  2  0
 12  2  1  1
 12 16  1  0
 16 15  1  0
 15 14  1  0
 14 21  2  0
 21 20  1  0
 20 19  2  0
 19 17  1  0
 18 17  1  0
 17 13  2  0
 14 13  1  0
 13 12  1  0
  7  3  1  0
  8  7  1  0
M  END
>  <smiles>  (162) 
NC(=O)[C@H]1CCCN(C(=O)[C@H]2CCc3cccc(O)c32)C1

>  <inchikey>  (162) 
ICZSVGPDCFQROW-RYUDHWBXSA-N

>  <alias>  (162) 
A4456a

$$$$
A4461a
     RDKit          3D

 19 20  0  0  0  0  0  0  0  0999 V2000
    9.2990   10.1620   23.6400 Cl  0  0  0  0  0  0  0  0  0  0  0  0
    8.1590   10.6910   24.8350 C   0  0  0  0  0  0  0  0  0  0  0  0
    7.2830    9.7780   25.3980 C   0  0  0  0  0  0  0  0  0  0  0  0
    6.3520   10.1230   26.2960 N   0  0  0  0  0  0  0  0  0  0  0  0
    6.3000   11.4090   26.6490 C   0  0  0  0  0  0  0  0  0  0  0  0
    7.1430   12.3790   26.1430 C   0  0  0  0  0  0  0  0  0  0  0  0
    8.1100   12.0290   25.2060 C   0  0  0  0  0  0  0  0  0  0  0  0
    9.1100   13.0470   24.7090 C   0  0  0  0  0  0  0  0  0  0  0  0
    8.7530   13.6340   23.3540 C   0  0  0  0  0  0  0  0  0  0  0  0
    7.8250   13.1990   22.6870 O   0  0  0  0  0  0  0  0  0  0  0  0
    9.5220   14.6640   22.9330 N   0  0  0  0  0  0  0  0  0  0  0  0
   10.4950   15.3860   23.7680 C   0  0  0  0  0  0  0  0  0  0  0  0
   11.8880   15.2980   23.1660 C   0  0  0  0  0  0  0  0  0  0  0  0
   11.8820   15.7580   21.7040 C   0  0  0  0  0  0  0  0  0  0  0  0
    9.4450   15.1690   21.5590 C   0  0  0  0  0  0  0  0  0  0  0  0
   10.8090   15.0340   20.8720 C   0  0  1  0  0  0  0  0  0  0  0  0
   10.7800   15.5440   19.4400 C   0  0  0  0  0  0  0  0  0  0  0  0
   10.5310   16.7240   19.1860 O   0  0  0  0  0  0  0  0  0  0  0  0
   11.0280   14.6480   18.5020 N   0  0  0  0  0  0  0  0  0  0  0  0
 19 17  1  0
 18 17  2  0
 16 17  1  6
 16 14  1  0
 14 13  1  0
 13 12  1  0
 12 11  1  0
 11  9  1  0
 10  9  2  0
  9  8  1  0
  8  7  1  0
  7  6  2  0
  6  5  1  0
  5  4  2  0
  4  3  1  0
  3  2  2  0
  7  2  1  0
  2  1  1  0
 15 11  1  0
 16 15  1  0
M  END
>  <smiles>  (163) 
NC(=O)[C@H]1CCCN(C(=O)Cc2ccncc2Cl)C1

>  <inchikey>  (163) 
KLQSXSCJLXMZBZ-JTQLQIEISA-N

>  <alias>  (163) 
A4461a

$$$$
A4463a
     RDKit          3D

 21 23  0  0  0  0  0  0  0  0999 V2000
    7.9580   13.3260   22.6900 O   0  0  0  0  0  0  0  0  0  0  0  0
    8.7580   13.8810   23.4280 C   0  0  0  0  0  0  0  0  0  0  0  0
    9.5530   14.8890   23.0000 N   0  0  0  0  0  0  0  0  0  0  0  0
   10.6110   15.5300   23.7970 C   0  0  0  0  0  0  0  0  0  0  0  0
   11.9720   15.3030   23.1500 C   0  0  0  0  0  0  0  0  0  0  0  0
   11.9650   15.7180   21.6710 C   0  0  0  0  0  0  0  0  0  0  0  0
    9.4790   15.4070   21.6290 C   0  0  0  0  0  0  0  0  0  0  0  0
   10.7880   15.1000   20.8890 C   0  0  1  0  0  0  0  0  0  0  0  0
   10.7640   15.5670   19.4410 C   0  0  0  0  0  0  0  0  0  0  0  0
   10.4130   16.7140   19.1430 O   0  0  0  0  0  0  0  0  0  0  0  0
   11.1020   14.6670   18.5360 N   0  0  0  0  0  0  0  0  0  0  0  0
    8.9030   13.4610   24.8800 C   0  0  0  0  0  0  0  0  0  0  0  0
    8.2190   12.1400   25.1580 C   0  0  0  0  0  0  0  0  0  0  0  0
    8.6390   10.9580   24.5160 C   0  0  0  0  0  0  0  0  0  0  0  0
    9.6720   10.8090   23.6390 N   0  0  0  0  0  0  0  0  0  0  0  0
    9.7270    9.2000   23.2620 S   0  0  0  0  0  0  0  0  0  0  0  0
    8.4550    8.6770   24.1620 N   0  0  0  0  0  0  0  0  0  0  0  0
    7.9490    9.7410   24.7990 C   0  0  0  0  0  0  0  0  0  0  0  0
    6.8570    9.7280   25.6810 C   0  0  0  0  0  0  0  0  0  0  0  0
    6.4710   10.8990   26.3020 C   0  0  0  0  0  0  0  0  0  0  0  0
    7.1500   12.0810   26.0520 C   0  0  0  0  0  0  0  0  0  0  0  0
 11  9  1  0
 10  9  2  0
  8  9  1  6
  8  6  1  0
  6  5  1  0
  5  4  1  0
  4  3  1  0
  3  2  1  0
  2  1  2  0
 12  2  1  0
 13 12  1  0
 13 21  2  0
 21 20  1  0
 20 19  2  0
 19 18  1  0
 18 17  2  0
 17 16  1  0
 16 15  1  0
 15 14  2  0
 14 13  1  0
 18 14  1  0
  7  3  1  0
  8  7  1  0
M  END
>  <smiles>  (164) 
NC(=O)[C@H]1CCCN(C(=O)Cc2cccc3nsnc23)C1

>  <inchikey>  (164) 
MSPQKNPSTZGBCJ-JTQLQIEISA-N

>  <alias>  (164) 
A4463a

$$$$
A4509a
     RDKit          3D

 20 21  0  0  0  0  0  0  0  0999 V2000
    9.9490    9.0240   23.4600 F   0  0  0  0  0  0  0  0  0  0  0  0
    9.1130    9.8720   24.1230 C   0  0  0  0  0  0  0  0  0  0  0  0
    7.9890    9.3800   24.7290 C   0  0  0  0  0  0  0  0  0  0  0  0
    7.1470   10.1830   25.3910 N   0  0  0  0  0  0  0  0  0  0  0  0
    7.4320   11.4920   25.4240 C   0  0  0  0  0  0  0  0  0  0  0  0
    9.4160   11.2040   24.1620 C   0  0  0  0  0  0  0  0  0  0  0  0
    8.5410   12.0650   24.8140 C   0  0  0  0  0  0  0  0  0  0  0  0
    8.7360   13.5690   24.6840 C   0  0  2  0  0  0  0  0  0  0  0  0
    7.7660   14.4370   25.4940 C   0  0  0  0  0  0  0  0  0  0  0  0
    8.6770   13.9580   23.2160 C   0  0  0  0  0  0  0  0  0  0  0  0
    7.8770   13.4230   22.4640 O   0  0  0  0  0  0  0  0  0  0  0  0
    9.5530   14.8910   22.7700 N   0  0  0  0  0  0  0  0  0  0  0  0
    9.4870   15.3750   21.3880 C   0  0  0  0  0  0  0  0  0  0  0  0
   10.8270   15.1380   20.6860 C   0  0  1  0  0  0  0  0  0  0  0  0
   10.7380   15.6520   19.2590 C   0  0  0  0  0  0  0  0  0  0  0  0
   10.8550   14.8850   18.3000 O   0  0  0  0  0  0  0  0  0  0  0  0
   10.5020   16.9470   19.1210 N   0  0  0  0  0  0  0  0  0  0  0  0
   11.9420   15.8460   21.4710 C   0  0  0  0  0  0  0  0  0  0  0  0
   11.9650   15.4120   22.9360 C   0  0  0  0  0  0  0  0  0  0  0  0
   10.5940   15.5590   23.5730 C   0  0  0  0  0  0  0  0  0  0  0  0
  8  9  1  1
 10  8  1  0
 11 10  2  0
 12 10  1  0
 12 20  1  0
 20 19  1  0
 19 18  1  0
 18 14  1  0
 14 15  1  6
 17 15  1  0
 16 15  2  0
 14 13  1  0
 13 12  1  0
  8  7  1  0
  7  5  1  0
  5  4  2  0
  4  3  1  0
  3  2  2  0
  2  1  1  0
  6  2  1  0
  7  6  2  0
M  END
>  <smiles>  (165) 
C[C@H](C(=O)N1CCC[C@H](C(N)=O)C1)c1cncc(F)c1

>  <inchikey>  (165) 
RPBBANSDGLBREC-UWVGGRQHSA-N

>  <alias>  (165) 
A4509a

$$$$
A4524a
     RDKit          3D

 21 22  0  0  0  0  0  0  0  0999 V2000
    7.7630   10.7930   25.2610 Cl  0  0  0  0  0  0  0  0  0  0  0  0
    6.7950   12.0640   25.9090 C   0  0  0  0  0  0  0  0  0  0  0  0
    5.8960   11.7920   26.9490 C   0  0  0  0  0  0  0  0  0  0  0  0
    5.9890   10.5400   27.4950 O   0  0  0  0  0  0  0  0  0  0  0  0
    4.8750   10.0520   28.2470 C   0  0  0  0  0  0  0  0  0  0  0  0
    6.8390   13.3370   25.3280 C   0  0  0  0  0  0  0  0  0  0  0  0
    5.9040   14.2940   25.7230 C   0  0  0  0  0  0  0  0  0  0  0  0
    5.0030   14.0110   26.7390 C   0  0  0  0  0  0  0  0  0  0  0  0
    5.0070   12.7760   27.3670 C   0  0  0  0  0  0  0  0  0  0  0  0
    7.9690   13.7120   24.5550 N   0  0  0  0  0  0  0  0  0  0  0  0
    8.1370   13.6830   23.1990 C   0  0  0  0  0  0  0  0  0  0  0  0
    7.3110   13.1850   22.4480 O   0  0  0  0  0  0  0  0  0  0  0  0
    9.3010   14.2220   22.7210 N   0  0  0  0  0  0  0  0  0  0  0  0
    9.1690   14.9310   21.4440 C   0  0  0  0  0  0  0  0  0  0  0  0
   10.4810   14.8370   20.6600 C   0  0  1  0  0  0  0  0  0  0  0  0
   10.4480   15.3560   19.2330 C   0  0  0  0  0  0  0  0  0  0  0  0
    9.8960   16.4230   18.9550 O   0  0  0  0  0  0  0  0  0  0  0  0
   11.0160   14.5770   18.3280 N   0  0  0  0  0  0  0  0  0  0  0  0
   11.5980   15.4850   21.4920 C   0  0  0  0  0  0  0  0  0  0  0  0
   11.7160   14.8280   22.8710 C   0  0  0  0  0  0  0  0  0  0  0  0
   10.3620   14.7770   23.5840 C   0  0  0  0  0  0  0  0  0  0  0  0
  5  4  1  0
  4  3  1  0
  3  9  2  0
  9  8  1  0
  8  7  2  0
  7  6  1  0
 10  6  1  0
 11 10  1  0
 12 11  2  0
 13 11  1  0
 13 21  1  0
 21 20  1  0
 20 19  1  0
 19 15  1  0
 15 16  1  6
 18 16  1  0
 17 16  2  0
 15 14  1  0
 14 13  1  0
  6  2  2  0
  3  2  1  0
  2  1  1  0
M  END
>  <smiles>  (166) 
COc1cccc(NC(=O)N2CCC[C@H](C(N)=O)C2)c1Cl

>  <inchikey>  (166) 
DFGLJBPMZPVSMK-VIFPVBQESA-N

>  <alias>  (166) 
A4524a

$$$$
A4526a
     RDKit          3D

 18 19  0  0  0  0  0  0  0  0999 V2000
   10.4900   16.7700   19.2180 O   0  0  0  0  0  0  0  0  0  0  0  0
   10.5730   15.5620   19.4420 C   0  0  0  0  0  0  0  0  0  0  0  0
   10.7230   14.6640   18.4860 N   0  0  0  0  0  0  0  0  0  0  0  0
   10.4950   15.0210   20.8590 C   0  0  1  0  0  0  0  0  0  0  0  0
   11.6340   15.5750   21.7270 C   0  0  0  0  0  0  0  0  0  0  0  0
   11.5550   15.0560   23.1640 C   0  0  0  0  0  0  0  0  0  0  0  0
   10.1870   15.3420   23.7610 C   0  0  0  0  0  0  0  0  0  0  0  0
    9.1610   15.3620   21.5330 C   0  0  0  0  0  0  0  0  0  0  0  0
    9.1250   14.8100   22.8910 N   0  0  0  0  0  0  0  0  0  0  0  0
    8.1860   13.9070   23.2510 C   0  0  0  0  0  0  0  0  0  0  0  0
    7.3700   13.4870   22.4500 O   0  0  0  0  0  0  0  0  0  0  0  0
    8.1740   13.4230   24.6880 C   0  0  1  0  0  0  0  0  0  0  0  0
    6.8100   13.7110   25.3140 C   0  0  0  0  0  0  0  0  0  0  0  0
    8.4480   11.9400   24.6360 C   0  0  0  0  0  0  0  0  0  0  0  0
    9.8370   11.3110   23.8530 S   0  0  0  0  0  0  0  0  0  0  0  0
    9.4060    9.7050   24.2000 C   0  0  0  0  0  0  0  0  0  0  0  0
    8.2580    9.6200   24.8870 C   0  0  0  0  0  0  0  0  0  0  0  0
    7.6710   10.9070   25.1560 C   0  0  0  0  0  0  0  0  0  0  0  0
 12 13  1  6
 12 10  1  0
 11 10  2  0
 10  9  1  0
  9  7  1  0
  7  6  1  0
  6  5  1  0
  5  4  1  0
  4  2  1  6
  3  2  1  0
  2  1  2  0
  8  4  1  0
  9  8  1  0
 14 12  1  0
 14 18  2  0
 18 17  1  0
 17 16  2  0
 16 15  1  0
 15 14  1  0
M  END
>  <smiles>  (167) 
C[C@H](C(=O)N1CCC[C@H](C(N)=O)C1)c1cccs1

>  <inchikey>  (167) 
JQNFTWVJWFLFOK-UWVGGRQHSA-N

>  <alias>  (167) 
A4526a

$$$$
A4563a
     RDKit          3D

 16 17  0  0  0  0  0  0  0  0999 V2000
   11.3490   14.1430   25.0410 O   0  0  0  0  0  0  0  0  0  0  0  0
   11.1950   14.4670   23.8710 C   0  0  0  0  0  0  0  0  0  0  0  0
   12.1810   15.4150   23.2220 C   0  0  0  0  0  0  0  0  0  0  0  0
   11.8420   15.9110   21.8210 C   0  0  0  0  0  0  0  0  0  0  0  0
   10.1760   13.9610   23.1130 N   0  0  0  0  0  0  0  0  0  0  0  0
    9.8990   14.3620   21.7130 C   0  0  0  0  0  0  0  0  0  0  0  0
   11.1720   14.8150   20.9870 C   0  0  1  0  0  0  0  0  0  0  0  0
   10.8370   15.3050   19.5880 C   0  0  0  0  0  0  0  0  0  0  0  0
   10.3220   16.4140   19.4020 O   0  0  0  0  0  0  0  0  0  0  0  0
   11.0980   14.4560   18.6050 N   0  0  0  0  0  0  0  0  0  0  0  0
    9.3110   12.9580   23.6580 C   0  0  0  0  0  0  0  0  0  0  0  0
    8.2610   13.3200   24.4960 C   0  0  0  0  0  0  0  0  0  0  0  0
    7.5190   12.3370   25.1330 C   0  0  0  0  0  0  0  0  0  0  0  0
    7.8140   11.0020   24.9390 C   0  0  0  0  0  0  0  0  0  0  0  0
    8.8400   10.6400   24.0790 C   0  0  0  0  0  0  0  0  0  0  0  0
    9.5890   11.6120   23.4340 C   0  0  0  0  0  0  0  0  0  0  0  0
 10  8  1  0
  9  8  2  0
  7  8  1  6
  7  4  1  0
  4  3  1  0
  3  2  1  0
  2  1  2  0
  5  2  1  0
 11  5  1  0
 11 16  2  0
 16 15  1  0
 15 14  2  0
 14 13  1  0
 13 12  2  0
 12 11  1  0
  6  5  1  0
  7  6  1  0
M  END
>  <smiles>  (168) 
NC(=O)[C@H]1CCC(=O)N(c2ccccc2)C1

>  <inchikey>  (168) 
QUDHARAVDXCJDA-VIFPVBQESA-N

>  <alias>  (168) 
A4563a

$$$$
A4570a
     RDKit          3D

 20 21  0  0  0  0  0  0  0  0999 V2000
    9.8610    9.0530   23.6780 F   0  0  0  0  0  0  0  0  0  0  0  0
    8.9590    9.9200   24.1970 C   0  0  0  0  0  0  0  0  0  0  0  0
    7.8100    9.4410   24.7580 C   0  0  0  0  0  0  0  0  0  0  0  0
    6.9170   10.2540   25.3270 N   0  0  0  0  0  0  0  0  0  0  0  0
    7.1810   11.5660   25.3170 C   0  0  0  0  0  0  0  0  0  0  0  0
    9.2300   11.2600   24.1720 C   0  0  0  0  0  0  0  0  0  0  0  0
    8.3100   12.1310   24.7440 C   0  0  0  0  0  0  0  0  0  0  0  0
    8.5030   13.6350   24.6160 C   0  0  2  0  0  0  0  0  0  0  0  0
    7.4750   14.4810   25.3660 C   0  0  0  0  0  0  0  0  0  0  0  0
    8.5120   14.0180   23.1460 C   0  0  0  0  0  0  0  0  0  0  0  0
    7.7100   13.5220   22.3730 O   0  0  0  0  0  0  0  0  0  0  0  0
    9.4130   14.9440   22.7400 N   0  0  0  0  0  0  0  0  0  0  0  0
    9.4210   15.4140   21.3510 C   0  0  0  0  0  0  0  0  0  0  0  0
   10.8010   15.1900   20.7280 C   0  0  1  0  0  0  0  0  0  0  0  0
   10.7660   15.7010   19.2980 C   0  0  0  0  0  0  0  0  0  0  0  0
   10.5580   16.8940   19.0550 O   0  0  0  0  0  0  0  0  0  0  0  0
   10.9370   14.7890   18.3510 N   0  0  0  0  0  0  0  0  0  0  0  0
   11.8260   15.9770   21.5610 C   0  0  0  0  0  0  0  0  0  0  0  0
   11.8100   15.5280   23.0210 C   0  0  0  0  0  0  0  0  0  0  0  0
   10.4040   15.6160   23.6010 C   0  0  0  0  0  0  0  0  0  0  0  0
  8  9  1  1
 10  8  1  0
 11 10  2  0
 12 10  1  0
 12 20  1  0
 20 19  1  0
 19 18  1  0
 18 14  1  0
 14 15  1  6
 17 15  1  0
 16 15  2  0
 14 13  1  0
 13 12  1  0
  8  7  1  0
  7  5  1  0
  5  4  2  0
  4  3  1  0
  3  2  2  0
  2  1  1  0
  6  2  1  0
  7  6  2  0
M  END
>  <smiles>  (169) 
C[C@H](C(=O)N1CCC[C@H](C(N)=O)C1)c1cncc(F)c1

>  <inchikey>  (169) 
RPBBANSDGLBREC-UWVGGRQHSA-N

>  <alias>  (169) 
A4570a

$$$$
A4586a
     RDKit          3D

 18 19  0  0  0  0  0  0  0  0999 V2000
   10.3350   16.7430   19.1740 O   0  0  0  0  0  0  0  0  0  0  0  0
   10.5080   15.5550   19.4530 C   0  0  0  0  0  0  0  0  0  0  0  0
   10.8390   14.6490   18.5470 N   0  0  0  0  0  0  0  0  0  0  0  0
   10.3700   15.0520   20.8810 C   0  0  1  0  0  0  0  0  0  0  0  0
   11.5190   15.5470   21.7650 C   0  0  0  0  0  0  0  0  0  0  0  0
   11.4620   14.9040   23.1560 C   0  0  0  0  0  0  0  0  0  0  0  0
   10.0980   15.1150   23.7970 C   0  0  0  0  0  0  0  0  0  0  0  0
    9.0620   15.3790   21.6130 C   0  0  0  0  0  0  0  0  0  0  0  0
    9.0070   14.6800   22.9040 N   0  0  0  0  0  0  0  0  0  0  0  0
    7.9960   13.7910   23.1390 C   0  0  0  0  0  0  0  0  0  0  0  0
    7.2520   13.4300   22.2420 O   0  0  0  0  0  0  0  0  0  0  0  0
    7.7800   13.2160   24.5290 C   0  0  2  0  0  0  0  0  0  0  0  0
    8.1300   14.1890   25.6650 C   0  0  0  0  0  0  0  0  0  0  0  0
    8.4280   11.8490   24.5980 C   0  0  0  0  0  0  0  0  0  0  0  0
    9.8450   11.4160   23.7500 S   0  0  0  0  0  0  0  0  0  0  0  0
    9.7010    9.8000   24.1900 C   0  0  0  0  0  0  0  0  0  0  0  0
    8.6280    9.5800   24.9660 C   0  0  0  0  0  0  0  0  0  0  0  0
    7.8920   10.7590   25.2130 C   0  0  0  0  0  0  0  0  0  0  0  0
 12 13  1  1
 12 10  1  0
 11 10  2  0
 10  9  1  0
  9  7  1  0
  7  6  1  0
  6  5  1  0
  5  4  1  0
  4  2  1  6
  3  2  1  0
  2  1  2  0
  8  4  1  0
  9  8  1  0
 14 12  1  0
 14 18  2  0
 18 17  1  0
 17 16  2  0
 16 15  1  0
 15 14  1  0
M  END
>  <smiles>  (170) 
C[C@@H](C(=O)N1CCC[C@H](C(N)=O)C1)c1cccs1

>  <inchikey>  (170) 
JQNFTWVJWFLFOK-ZJUUUORDSA-N

>  <alias>  (170) 
A4586a

$$$$
A4650a
     RDKit          3D

 22 23  0  0  0  0  0  0  0  0999 V2000
   10.3330   10.6700   24.7220 F   0  0  0  0  0  0  0  0  0  0  0  0
    9.2750   10.5860   23.9190 C   0  0  0  0  0  0  0  0  0  0  0  0
    9.2260    9.3200   23.5010 F   0  0  0  0  0  0  0  0  0  0  0  0
    9.5630   11.2800   22.8270 F   0  0  0  0  0  0  0  0  0  0  0  0
    8.0050   11.0420   24.5900 C   0  0  0  0  0  0  0  0  0  0  0  0
    7.0960   10.0630   24.9710 C   0  0  0  0  0  0  0  0  0  0  0  0
    5.9570   10.3910   25.6880 C   0  0  0  0  0  0  0  0  0  0  0  0
    5.7100   11.6960   26.0270 C   0  0  0  0  0  0  0  0  0  0  0  0
    6.5920   12.6880   25.6370 C   0  0  0  0  0  0  0  0  0  0  0  0
    7.7440   12.3810   24.9150 C   0  0  0  0  0  0  0  0  0  0  0  0
    8.6940   13.4940   24.5330 C   0  0  0  0  0  0  0  0  0  0  0  0
    8.4840   13.9670   23.1050 C   0  0  0  0  0  0  0  0  0  0  0  0
    7.6030   13.4850   22.4110 O   0  0  0  0  0  0  0  0  0  0  0  0
    9.2830   14.9590   22.6570 N   0  0  0  0  0  0  0  0  0  0  0  0
   10.2910   15.6640   23.4660 C   0  0  0  0  0  0  0  0  0  0  0  0
   11.6470   15.6560   22.7840 C   0  0  0  0  0  0  0  0  0  0  0  0
   11.5350   16.1490   21.3360 C   0  0  0  0  0  0  0  0  0  0  0  0
    9.1530   15.4700   21.2880 C   0  0  0  0  0  0  0  0  0  0  0  0
   10.4860   15.3490   20.5460 C   0  0  1  0  0  0  0  0  0  0  0  0
   10.3960   15.8230   19.1050 C   0  0  0  0  0  0  0  0  0  0  0  0
   10.0750   16.9830   18.8340 O   0  0  0  0  0  0  0  0  0  0  0  0
   10.6810   14.9190   18.1790 N   0  0  0  0  0  0  0  0  0  0  0  0
 22 20  1  0
 21 20  2  0
 19 20  1  6
 19 17  1  0
 17 16  1  0
 16 15  1  0
 15 14  1  0
 14 12  1  0
 13 12  2  0
 12 11  1  0
 11 10  1  0
 10  9  2  0
  9  8  1  0
  8  7  2  0
  7  6  1  0
  6  5  2  0
 10  5  1  0
  5  2  1  0
  3  2  1  0
  4  2  1  0
  2  1  1  0
 18 14  1  0
 19 18  1  0
M  END
>  <smiles>  (171) 
NC(=O)[C@H]1CCCN(C(=O)Cc2ccccc2C(F)(F)F)C1

>  <inchikey>  (171) 
QPXHUQPZPULEMO-NSHDSACASA-N

>  <alias>  (171) 
A4650a

$$$$
A4675a
     RDKit          3D

 22 23  0  0  0  0  0  0  0  0999 V2000
   10.4340   16.8290   19.1490 O   0  0  0  0  0  0  0  0  0  0  0  0
   10.7650   15.6690   19.4090 C   0  0  0  0  0  0  0  0  0  0  0  0
   11.0940   14.7930   18.4780 N   0  0  0  0  0  0  0  0  0  0  0  0
   10.8140   15.1680   20.8430 C   0  0  1  0  0  0  0  0  0  0  0  0
   11.9700   15.8130   21.6240 C   0  0  0  0  0  0  0  0  0  0  0  0
   12.0260   15.3100   23.0700 C   0  0  0  0  0  0  0  0  0  0  0  0
   10.6890   15.5020   23.7620 C   0  0  0  0  0  0  0  0  0  0  0  0
    9.5100   15.4550   21.5950 C   0  0  0  0  0  0  0  0  0  0  0  0
    9.6010   14.9240   22.9580 N   0  0  0  0  0  0  0  0  0  0  0  0
    8.7640   13.9520   23.3760 C   0  0  0  0  0  0  0  0  0  0  0  0
    7.8170   13.5760   22.7010 O   0  0  0  0  0  0  0  0  0  0  0  0
    9.0690   13.3280   24.7250 C   0  0  0  0  0  0  0  0  0  0  0  0
    8.8180   11.8380   24.7030 C   0  0  0  0  0  0  0  0  0  0  0  0
    7.5980   11.2490   25.0600 C   0  0  0  0  0  0  0  0  0  0  0  0
    6.1610   12.1910   25.5210 S   0  0  0  0  0  0  0  0  0  0  0  0
    5.1760   11.2730   26.0210 O   0  0  0  0  0  0  0  0  0  0  0  0
    5.8020   13.0170   24.4010 O   0  0  0  0  0  0  0  0  0  0  0  0
    6.6520   13.2340   26.8430 C   0  0  0  0  0  0  0  0  0  0  0  0
    9.8150   10.9960   24.2130 C   0  0  0  0  0  0  0  0  0  0  0  0
    9.6000    9.6420   24.0660 C   0  0  0  0  0  0  0  0  0  0  0  0
    8.4030    9.0880   24.4300 C   0  0  0  0  0  0  0  0  0  0  0  0
    7.3940    9.8820   24.9460 C   0  0  0  0  0  0  0  0  0  0  0  0
 18 15  1  0
 16 15  2  0
 17 15  2  0
 15 14  1  0
 14 22  2  0
 22 21  1  0
 21 20  2  0
 20 19  1  0
 19 13  2  0
 14 13  1  0
 13 12  1  0
 12 10  1  0
 11 10  2  0
 10  9  1  0
  9  7  1  0
  7  6  1  0
  6  5  1  0
  5  4  1  0
  4  2  1  6
  3  2  1  0
  2  1  2  0
  8  4  1  0
  9  8  1  0
M  END
>  <smiles>  (172) 
CS(=O)(=O)c1ccccc1CC(=O)N1CCC[C@H](C(N)=O)C1

>  <inchikey>  (172) 
PSAGHVQLKXCCTK-LBPRGKRZSA-N

>  <alias>  (172) 
A4675a

$$$$
A4701a
     RDKit          3D

 18 19  0  0  0  0  0  0  0  0999 V2000
   10.0360   16.4180   19.0930 O   0  0  0  0  0  0  0  0  0  0  0  0
   10.4960   15.3220   19.4070 C   0  0  0  0  0  0  0  0  0  0  0  0
   10.9020   14.4160   18.5280 N   0  0  0  0  0  0  0  0  0  0  0  0
   10.5670   14.8630   20.8540 C   0  0  1  0  0  0  0  0  0  0  0  0
   11.6910   15.5630   21.6320 C   0  0  0  0  0  0  0  0  0  0  0  0
   11.8920   15.0190   23.0290 C   0  0  0  0  0  0  0  0  0  0  0  0
   10.5970   14.9950   23.8220 C   0  0  0  0  0  0  0  0  0  0  0  0
    9.3500   15.1170   21.7240 C   0  0  0  0  0  0  0  0  0  0  0  0
    9.5300   14.4390   23.0000 N   0  0  0  0  0  0  0  0  0  0  0  0
    8.8590   13.3030   23.2950 C   0  0  0  0  0  0  0  0  0  0  0  0
    7.8570   12.9550   22.7180 O   0  0  0  0  0  0  0  0  0  0  0  0
    9.4670   12.3320   24.2840 C   0  0  0  0  0  0  0  0  0  0  0  0
    8.8170   10.9200   24.3160 C   0  0  0  0  0  0  0  0  0  0  0  0
    8.9610    9.9580   23.1770 C   0  0  0  0  0  0  0  0  0  0  0  0
    9.7390    9.7490   24.4620 C   0  0  0  0  0  0  0  0  0  0  0  0
    7.3400   10.7290   24.6940 C   0  0  0  0  0  0  0  0  0  0  0  0
    7.4160   11.1690   26.4450 S   0  0  0  0  0  0  0  0  0  0  0  0
    5.8610   10.7850   27.0190 C   0  0  0  0  0  0  0  0  0  0  0  0
 18 17  1  0
 17 16  1  0
 16 13  1  0
 13 12  1  0
 12 10  1  0
 11 10  2  0
 10  9  1  0
  9  7  1  0
  7  6  1  0
  6  5  1  0
  5  4  1  0
  4  2  1  6
  3  2  1  0
  2  1  2  0
  8  4  1  0
  9  8  1  0
 13 15  1  0
 15 14  1  0
 14 13  1  0
M  END
>  <smiles>  (173) 
CSCC1(CC(=O)N2CCC[C@H](C(N)=O)C2)CC1

>  <inchikey>  (173) 
HUXPZZDRMFMXBF-JTQLQIEISA-N

>  <alias>  (173) 
A4701a

$$$$
A4706a
     RDKit          3D

 17 18  0  0  0  0  0  0  0  0999 V2000
    7.0590   13.0750   22.4120 O   0  0  0  0  0  0  0  0  0  0  0  0
    7.8550   13.5010   23.2230 C   0  0  0  0  0  0  0  0  0  0  0  0
    8.8030   14.3860   22.8560 N   0  0  0  0  0  0  0  0  0  0  0  0
    9.8530   14.8970   23.7550 C   0  0  0  0  0  0  0  0  0  0  0  0
   11.2350   14.6980   23.1490 C   0  0  0  0  0  0  0  0  0  0  0  0
   11.2980   15.3300   21.7600 C   0  0  0  0  0  0  0  0  0  0  0  0
    8.8330   14.9730   21.5090 C   0  0  0  0  0  0  0  0  0  0  0  0
   10.1990   14.7380   20.8560 C   0  0  1  0  0  0  0  0  0  0  0  0
   10.2940   15.2570   19.4310 C   0  0  0  0  0  0  0  0  0  0  0  0
    9.8880   16.3880   19.1370 O   0  0  0  0  0  0  0  0  0  0  0  0
   10.8480   14.4320   18.5480 N   0  0  0  0  0  0  0  0  0  0  0  0
    7.7080   13.1430   24.7160 C   0  0  0  0  0  0  0  0  0  0  0  0
    6.8590   14.1980   25.4430 C   0  0  0  0  0  0  0  0  0  0  0  0
    6.7600   13.9320   26.9400 C   0  0  0  0  0  0  0  0  0  0  0  0
    5.8850   12.3930   27.3130 S   0  0  0  0  0  0  0  0  0  0  0  0
    6.9350   11.2960   26.3260 C   0  0  0  0  0  0  0  0  0  0  0  0
    7.0590   11.7570   24.8780 C   0  0  0  0  0  0  0  0  0  0  0  0
 11  9  1  0
 10  9  2  0
  8  9  1  6
  8  6  1  0
  6  5  1  0
  5  4  1  0
  4  3  1  0
  3  2  1  0
  2  1  2  0
 12  2  1  0
 12 17  1  0
 17 16  1  0
 16 15  1  0
 15 14  1  0
 14 13  1  0
 13 12  1  0
  7  3  1  0
  8  7  1  0
M  END
>  <smiles>  (174) 
NC(=O)[C@H]1CCCN(C(=O)C2CCSCC2)C1

>  <inchikey>  (174) 
OJBHGPGRQLLRTQ-JTQLQIEISA-N

>  <alias>  (174) 
A4706a

$$$$
A4707a
     RDKit          3D

 16 17  0  0  0  0  0  0  0  0999 V2000
    7.4500   12.7250   22.5540 O   0  0  0  0  0  0  0  0  0  0  0  0
    8.4010   13.0870   23.2010 C   0  0  0  0  0  0  0  0  0  0  0  0
    8.7780   12.3330   24.4480 C   0  0  0  0  0  0  0  0  0  0  0  0
    8.3160   10.8850   24.2720 C   0  0  0  0  0  0  0  0  0  0  0  0
    9.2980   10.3210   23.3110 C   0  0  0  0  0  0  0  0  0  0  0  0
    9.9820    9.1260   24.6340 S   0  0  0  0  0  0  0  0  0  0  0  0
    8.4140    9.8570   25.3690 C   0  0  0  0  0  0  0  0  0  0  0  0
    9.1100   14.1840   22.9120 N   0  0  0  0  0  0  0  0  0  0  0  0
   10.1470   14.6500   23.8400 C   0  0  0  0  0  0  0  0  0  0  0  0
   11.5270   14.6610   23.1600 C   0  0  0  0  0  0  0  0  0  0  0  0
   11.5270   15.3200   21.7880 C   0  0  0  0  0  0  0  0  0  0  0  0
    9.0510   14.9930   21.7060 C   0  0  0  0  0  0  0  0  0  0  0  0
   10.3460   14.8160   20.9360 C   0  0  1  0  0  0  0  0  0  0  0  0
   10.3220   15.3730   19.5180 C   0  0  0  0  0  0  0  0  0  0  0  0
    9.9550   16.4700   19.2650 O   0  0  0  0  0  0  0  0  0  0  0  0
   10.8010   14.4760   18.6290 N   0  0  0  0  0  0  0  0  0  0  0  0
 16 14  1  0
 15 14  2  0
 13 14  1  6
 13 11  1  0
 11 10  1  0
 10  9  1  0
  9  8  1  0
  8  2  1  0
  2  1  2  0
  3  2  1  0
  4  3  1  0
  4  7  1  0
  7  6  1  0
  6  5  1  0
  5  4  1  0
 12  8  1  0
 13 12  1  0
M  END
>  <smiles>  (175) 
NC(=O)[C@H]1CCCN(C(=O)CC2CSC2)C1

>  <inchikey>  (175) 
BKTQIMHCVRWPFO-VIFPVBQESA-N

>  <alias>  (175) 
A4707a

$$$$
A4708a
     RDKit          3D

 18 19  0  0  0  0  0  0  0  0999 V2000
    7.2080   13.0710   22.5060 O   0  0  0  0  0  0  0  0  0  0  0  0
    8.0330   13.5230   23.2720 C   0  0  0  0  0  0  0  0  0  0  0  0
    8.9540   14.3980   22.8250 N   0  0  0  0  0  0  0  0  0  0  0  0
    9.9710   15.0090   23.6980 C   0  0  0  0  0  0  0  0  0  0  0  0
   11.3660   14.9000   23.0990 C   0  0  0  0  0  0  0  0  0  0  0  0
   11.3830   15.4540   21.6780 C   0  0  0  0  0  0  0  0  0  0  0  0
    8.9480   14.8960   21.4450 C   0  0  0  0  0  0  0  0  0  0  0  0
   10.3310   14.7430   20.8090 C   0  0  1  0  0  0  0  0  0  0  0  0
   10.3940   15.2170   19.3670 C   0  0  0  0  0  0  0  0  0  0  0  0
    9.9150   16.3040   19.0360 O   0  0  0  0  0  0  0  0  0  0  0  0
   11.0010   14.4060   18.5140 N   0  0  0  0  0  0  0  0  0  0  0  0
    7.8290   13.1380   24.7590 C   0  0  0  0  0  0  0  0  0  0  0  0
    9.0830   13.1050   25.4370 O   0  0  0  0  0  0  0  0  0  0  0  0
    7.2320   11.7300   24.8780 C   0  0  0  0  0  0  0  0  0  0  0  0
    6.9230   11.2690   26.2930 C   0  0  0  0  0  0  0  0  0  0  0  0
    5.7220   12.3370   27.1240 S   0  0  0  0  0  0  0  0  0  0  0  0
    6.5910   13.9040   26.8870 C   0  0  0  0  0  0  0  0  0  0  0  0
    6.9180   14.1750   25.4270 C   0  0  0  0  0  0  0  0  0  0  0  0
 11  9  1  0
 10  9  2  0
  8  9  1  6
  8  6  1  0
  6  5  1  0
  5  4  1  0
  4  3  1  0
  3  2  1  0
  2  1  2  0
 12  2  1  0
 13 12  1  0
 12 18  1  0
 18 17  1  0
 17 16  1  0
 16 15  1  0
 15 14  1  0
 14 12  1  0
  7  3  1  0
  8  7  1  0
M  END
>  <smiles>  (176) 
NC(=O)[C@H]1CCCN(C(=O)C2(O)CCSCC2)C1

>  <inchikey>  (176) 
JBKFOLYWCBQWFH-VIFPVBQESA-N

>  <alias>  (176) 
A4708a

$$$$
A4712a
     RDKit          3D

 21 22  0  0  0  0  0  0  0  0999 V2000
   10.3210   16.5610   19.1690 O   0  0  0  0  0  0  0  0  0  0  0  0
   10.7460   15.4250   19.4160 C   0  0  0  0  0  0  0  0  0  0  0  0
   11.2420   14.6220   18.4840 N   0  0  0  0  0  0  0  0  0  0  0  0
   10.6770   14.8490   20.8180 C   0  0  1  0  0  0  0  0  0  0  0  0
   11.9210   15.2260   21.6440 C   0  0  0  0  0  0  0  0  0  0  0  0
   11.8850   14.5460   23.0140 C   0  0  0  0  0  0  0  0  0  0  0  0
   10.5820   14.8340   23.7480 C   0  0  0  0  0  0  0  0  0  0  0  0
    9.4220   15.2490   21.6050 C   0  0  0  0  0  0  0  0  0  0  0  0
    9.4010   14.5760   22.9090 N   0  0  0  0  0  0  0  0  0  0  0  0
    8.2880   13.8200   23.2230 C   0  0  0  0  0  0  0  0  0  0  0  0
    7.5460   13.3950   22.3580 O   0  0  0  0  0  0  0  0  0  0  0  0
    8.0280   13.5720   24.5520 N   0  0  0  0  0  0  0  0  0  0  0  0
    8.1460   14.6710   25.5150 C   0  0  0  0  0  0  0  0  0  0  0  0
    7.3940   12.3720   25.0070 C   0  0  0  0  0  0  0  0  0  0  0  0
    7.8750   11.1080   24.6450 C   0  0  0  0  0  0  0  0  0  0  0  0
    9.3690   11.0210   23.6990 S   0  0  0  0  0  0  0  0  0  0  0  0
    9.5730    9.2340   23.4040 C   0  0  0  0  0  0  0  0  0  0  0  0
    6.2120   12.4740   25.7400 C   0  0  0  0  0  0  0  0  0  0  0  0
    5.5150   11.3320   26.0920 C   0  0  0  0  0  0  0  0  0  0  0  0
    5.9880   10.0930   25.7380 C   0  0  0  0  0  0  0  0  0  0  0  0
    7.1690    9.9710   25.0190 C   0  0  0  0  0  0  0  0  0  0  0  0
 17 16  1  0
 16 15  1  0
 15 21  2  0
 21 20  1  0
 20 19  2  0
 19 18  1  0
 18 14  2  0
 15 14  1  0
 14 12  1  0
 13 12  1  0
 12 10  1  0
 11 10  2  0
 10  9  1  0
  9  7  1  0
  7  6  1  0
  6  5  1  0
  5  4  1  0
  4  2  1  6
  3  2  1  0
  2  1  2  0
  8  4  1  0
  9  8  1  0
M  END
>  <smiles>  (177) 
CSc1ccccc1N(C)C(=O)N1CCC[C@H](C(N)=O)C1

>  <inchikey>  (177) 
ZLXAWJCPNCQXOK-NSHDSACASA-N

>  <alias>  (177) 
A4712a

$$$$
A4715a
     RDKit          3D

 16 17  0  0  0  0  0  0  0  0999 V2000
    7.7530   13.9460   22.6790 O   0  0  0  0  0  0  0  0  0  0  0  0
    8.8440   13.8920   23.2200 C   0  0  0  0  0  0  0  0  0  0  0  0
    9.9810   14.2160   22.5720 N   0  0  0  0  0  0  0  0  0  0  0  0
   11.4440   14.1760   22.6590 C   0  0  0  0  0  0  0  0  0  0  0  0
   11.5020   14.9370   21.3250 C   0  0  0  0  0  0  0  0  0  0  0  0
   12.2510   14.3280   20.2700 O   0  0  0  0  0  0  0  0  0  0  0  0
    9.9820   14.7560   21.2090 C   0  0  0  0  0  0  0  0  0  0  0  0
    8.9820   13.4400   24.6620 C   0  0  0  0  0  0  0  0  0  0  0  0
    7.9680   12.3790   25.0290 C   0  0  0  0  0  0  0  0  0  0  0  0
    8.0520   11.0680   24.5480 C   0  0  0  0  0  0  0  0  0  0  0  0
    9.2960   10.7180   23.3450 S   0  0  0  0  0  0  0  0  0  0  0  0
    9.2270    8.9250   23.2250 C   0  0  0  0  0  0  0  0  0  0  0  0
    6.9650   12.6740   25.9490 C   0  0  0  0  0  0  0  0  0  0  0  0
    6.0970   11.6940   26.3990 C   0  0  0  0  0  0  0  0  0  0  0  0
    6.2090   10.4060   25.9400 C   0  0  0  0  0  0  0  0  0  0  0  0
    7.1780   10.0840   25.0090 C   0  0  0  0  0  0  0  0  0  0  0  0
 12 11  1  0
 11 10  1  0
 10 16  2  0
 16 15  1  0
 15 14  2  0
 14 13  1  0
 13  9  2  0
 10  9  1  0
  9  8  1  0
  8  2  1  0
  2  1  2  0
  3  2  1  0
  3  7  1  0
  7  5  1  0
  6  5  1  0
  5  4  1  0
  4  3  1  0
M  END
>  <smiles>  (178) 
CSc1ccccc1CC(=O)N1CC(O)C1

>  <inchikey>  (178) 
YMOIRNXOTTYMES-UHFFFAOYSA-N

>  <alias>  (178) 
A4715a

$$$$
A4742a
     RDKit          3D

 21 23  0  0  0  0  0  0  0  0999 V2000
    7.8060   13.1790   22.7690 O   0  0  0  0  0  0  0  0  0  0  0  0
    8.6790   13.6500   23.4700 C   0  0  0  0  0  0  0  0  0  0  0  0
    9.4720   14.6460   23.0360 N   0  0  0  0  0  0  0  0  0  0  0  0
   10.5460   15.2860   23.8200 C   0  0  0  0  0  0  0  0  0  0  0  0
   11.8900   15.1440   23.1190 C   0  0  0  0  0  0  0  0  0  0  0  0
   11.8010   15.6470   21.6680 C   0  0  0  0  0  0  0  0  0  0  0  0
    9.3310   15.2010   21.6870 C   0  0  0  0  0  0  0  0  0  0  0  0
   10.6340   14.9790   20.9170 C   0  0  1  0  0  0  0  0  0  0  0  0
   10.5580   15.4420   19.4710 C   0  0  0  0  0  0  0  0  0  0  0  0
   10.2040   16.5870   19.1860 O   0  0  0  0  0  0  0  0  0  0  0  0
   10.8440   14.5320   18.5570 N   0  0  0  0  0  0  0  0  0  0  0  0
    8.9000   13.1150   24.8830 C   0  0  1  0  0  0  0  0  0  0  0  0
    7.5710   12.6660   25.4500 C   0  0  0  0  0  0  0  0  0  0  0  0
    6.6230   13.6130   25.8320 C   0  0  0  0  0  0  0  0  0  0  0  0
    5.4640   13.2400   26.4890 C   0  0  0  0  0  0  0  0  0  0  0  0
    5.2380   11.9210   26.7870 C   0  0  0  0  0  0  0  0  0  0  0  0
    6.1420   10.9540   26.3900 C   0  0  0  0  0  0  0  0  0  0  0  0
    7.2920   11.3180   25.6900 C   0  0  0  0  0  0  0  0  0  0  0  0
    8.2500    9.9840   25.0630 S   0  0  0  0  0  0  0  0  0  0  0  0
    9.5670   10.7880   24.1160 C   0  0  0  0  0  0  0  0  0  0  0  0
    9.9970   12.0200   24.8950 C   0  0  0  0  0  0  0  0  0  0  0  0
 11  9  1  0
 10  9  2  0
  8  9  1  6
  8  6  1  0
  6  5  1  0
  5  4  1  0
  4  3  1  0
  3  2  1  0
  2  1  2  0
 12  2  1  6
 12 21  1  0
 21 20  1  0
 20 19  1  0
 19 18  1  0
 18 17  1  0
 17 16  2  0
 16 15  1  0
 15 14  2  0
 14 13  1  0
 18 13  2  0
 13 12  1  0
  7  3  1  0
  8  7  1  0
M  END
>  <smiles>  (179) 
NC(=O)[C@H]1CCCN(C(=O)[C@@H]2CCSc3ccccc32)C1

>  <inchikey>  (179) 
CIPSLIIOJPGGQL-WCQYABFASA-N

>  <alias>  (179) 
A4742a

$$$$
A4751a
     RDKit          3D

 19 20  0  0  0  0  0  0  0  0999 V2000
   10.0310   16.5550   18.7310 F   0  0  0  0  0  0  0  0  0  0  0  0
   10.8250   15.5330   18.9940 C   0  0  0  0  0  0  0  0  0  0  0  0
   10.6650   14.8250   20.4190 C   0  0  1  0  0  0  0  0  0  0  0  0
   11.9340   15.1170   21.2050 C   0  0  0  0  0  0  0  0  0  0  0  0
   11.9270   14.5030   22.5950 C   0  0  0  0  0  0  0  0  0  0  0  0
   10.7290   14.9810   23.3860 C   0  0  0  0  0  0  0  0  0  0  0  0
    9.4540   15.1770   21.2790 C   0  0  0  0  0  0  0  0  0  0  0  0
    9.5240   14.6330   22.6400 N   0  0  0  0  0  0  0  0  0  0  0  0
    8.5770   13.8210   23.1730 C   0  0  0  0  0  0  0  0  0  0  0  0
    7.6410   13.4990   22.5470 O   0  0  0  0  0  0  0  0  0  0  0  0
    8.6590   13.2910   24.5970 C   0  0  0  0  0  0  0  0  0  0  0  0
    7.6650   12.1740   24.8830 C   0  0  0  0  0  0  0  0  0  0  0  0
    7.8940   10.8510   24.4780 C   0  0  0  0  0  0  0  0  0  0  0  0
    9.2510   10.6030   23.3720 S   0  0  0  0  0  0  0  0  0  0  0  0
    9.2800    8.7460   23.1140 C   0  0  0  0  0  0  0  0  0  0  0  0
    6.5500   12.4320   25.6800 C   0  0  0  0  0  0  0  0  0  0  0  0
    5.7120   11.4090   26.0800 C   0  0  0  0  0  0  0  0  0  0  0  0
    5.9910   10.1090   25.7420 C   0  0  0  0  0  0  0  0  0  0  0  0
    7.0790    9.8160   24.9360 C   0  0  0  0  0  0  0  0  0  0  0  0
 15 14  1  0
 14 13  1  0
 13 19  2  0
 19 18  1  0
 18 17  2  0
 17 16  1  0
 16 12  2  0
 13 12  1  0
 12 11  1  0
 11  9  1  0
 10  9  2  0
  9  8  1  0
  8  6  1  0
  6  5  1  0
  5  4  1  0
  4  3  1  0
  3  2  1  6
  2  1  1  0
  7  3  1  0
  8  7  1  0
M  END
>  <smiles>  (180) 
CSc1ccccc1CC(=O)N1CCC[C@H](CF)C1

>  <inchikey>  (180) 
CCVZZJFVCZKBEW-GFCCVEGCSA-N

>  <alias>  (180) 
A4751a

$$$$
A4784a
     RDKit          3D

 18 19  0  0  0  0  0  0  0  0999 V2000
    7.1580   13.6860   21.8500 O   0  0  0  0  0  0  0  0  0  0  0  0
    7.9610   14.0330   22.6900 C   0  0  0  0  0  0  0  0  0  0  0  0
    8.9490   14.9050   22.4150 N   0  0  0  0  0  0  0  0  0  0  0  0
   10.0790   15.1850   23.3160 C   0  0  0  0  0  0  0  0  0  0  0  0
   11.4400   14.9400   22.6430 C   0  0  0  0  0  0  0  0  0  0  0  0
   11.4790   15.5420   21.2500 C   0  0  0  0  0  0  0  0  0  0  0  0
    9.0410   15.5470   21.1050 C   0  0  0  0  0  0  0  0  0  0  0  0
   10.2990   15.0340   20.4220 C   0  0  1  0  0  0  0  0  0  0  0  0
   10.4620   15.4090   18.9620 C   0  0  0  0  0  0  0  0  0  0  0  0
   10.0630   16.4960   18.5360 O   0  0  0  0  0  0  0  0  0  0  0  0
   11.1110   14.5210   18.2310 N   0  0  0  0  0  0  0  0  0  0  0  0
    7.8410   13.5270   24.1020 C   0  0  0  0  0  0  0  0  0  0  0  0
    7.7320   12.0170   24.1150 C   0  0  1  0  0  0  0  0  0  0  0  0
    9.2350   11.4380   23.2380 S   0  0  0  0  0  0  0  0  0  0  0  0
    9.2440    9.6510   23.5190 C   0  0  0  0  0  0  0  0  0  0  0  0
    8.8760    9.2790   24.8240 C   0  0  0  0  0  0  0  0  0  0  0  0
    7.2000    9.7880   25.2830 S   0  0  0  0  0  0  0  0  0  0  0  0
    7.5760   11.5330   25.5050 C   0  0  0  0  0  0  0  0  0  0  0  0
 11  9  1  0
 10  9  2  0
  8  9  1  6
  8  6  1  0
  6  5  1  0
  5  4  1  0
  4  3  1  0
  3  2  1  0
  2  1  2  0
 12  2  1  0
 13 12  1  1
 13 18  1  0
 18 17  1  0
 17 16  1  0
 16 15  1  0
 15 14  1  0
 14 13  1  0
  7  3  1  0
  8  7  1  0
M  END
>  <smiles>  (181) 
NC(=O)[C@H]1CCCN(C(=O)C[C@@H]2CSCCS2)C1

>  <inchikey>  (181) 
KOQMCRODGRBJEU-VHSXEESVSA-N

>  <alias>  (181) 
A4784a

$$$$
A4786a
     RDKit          3D

 16 17  0  0  0  0  0  0  0  0999 V2000
    7.5020   12.8670   22.8040 O   0  0  0  0  0  0  0  0  0  0  0  0
    8.3410   13.4450   23.4570 C   0  0  0  0  0  0  0  0  0  0  0  0
    8.5430   13.1130   24.9160 C   0  0  1  0  0  0  0  0  0  0  0  0
    7.3040   12.3420   25.4960 C   0  0  0  0  0  0  0  0  0  0  0  0
    7.7050   10.5850   25.4980 S   0  0  0  0  0  0  0  0  0  0  0  0
    9.3130   10.7510   24.9250 C   0  0  0  0  0  0  0  0  0  0  0  0
    9.7490   12.1810   25.2110 C   0  0  0  0  0  0  0  0  0  0  0  0
    9.0780   14.4360   22.9360 N   0  0  0  0  0  0  0  0  0  0  0  0
   10.0570   15.1590   23.7500 C   0  0  0  0  0  0  0  0  0  0  0  0
   11.4420   15.0630   23.1450 C   0  0  0  0  0  0  0  0  0  0  0  0
   11.4390   15.5840   21.7160 C   0  0  0  0  0  0  0  0  0  0  0  0
    8.9990   14.9260   21.5630 C   0  0  0  0  0  0  0  0  0  0  0  0
   10.3750   14.8400   20.8900 C   0  0  1  0  0  0  0  0  0  0  0  0
   10.3060   15.3490   19.4590 C   0  0  0  0  0  0  0  0  0  0  0  0
    9.9840   16.5020   19.1880 O   0  0  0  0  0  0  0  0  0  0  0  0
   10.6040   14.4470   18.5350 N   0  0  0  0  0  0  0  0  0  0  0  0
 16 14  1  0
 15 14  2  0
 13 14  1  6
 13 11  1  0
 11 10  1  0
 10  9  1  0
  9  8  1  0
  8  2  1  0
  2  1  2  0
  3  2  1  6
  3  7  1  0
  7  6  1  0
  6  5  1  0
  5  4  1  0
  4  3  1  0
 12  8  1  0
 13 12  1  0
M  END
>  <smiles>  (182) 
NC(=O)[C@H]1CCCN(C(=O)[C@@H]2CCSC2)C1

>  <inchikey>  (182) 
FOWCZQMGYPBKOB-DTWKUNHWSA-N

>  <alias>  (182) 
A4786a

$$$$
A4794a
     RDKit          3D

 18 19  0  0  0  0  0  0  0  0999 V2000
    7.6000   13.3740   22.7680 O   0  0  0  0  0  0  0  0  0  0  0  0
    8.5140   13.6660   23.5240 C   0  0  0  0  0  0  0  0  0  0  0  0
    9.5580   14.4100   23.1300 N   0  0  0  0  0  0  0  0  0  0  0  0
    9.3240   15.3700   22.0520 C   0  0  0  0  0  0  0  0  0  0  0  0
   10.3050   15.1180   20.9370 C   0  0  1  0  0  0  0  0  0  0  0  0
   10.0100   15.9970   19.8610 O   0  0  0  0  0  0  0  0  0  0  0  0
   11.7370   15.3240   21.4120 C   0  0  0  0  0  0  0  0  0  0  0  0
   11.9420   15.1530   22.9190 C   0  0  0  0  0  0  0  0  0  0  0  0
   10.9480   14.1960   23.5780 C   0  0  0  0  0  0  0  0  0  0  0  0
    8.5630   13.2210   24.9710 C   0  0  0  0  0  0  0  0  0  0  0  0
    7.6060   12.0820   25.2410 C   0  0  0  0  0  0  0  0  0  0  0  0
    7.8220   10.7800   24.7730 C   0  0  0  0  0  0  0  0  0  0  0  0
    9.1260   10.5700   23.5960 S   0  0  0  0  0  0  0  0  0  0  0  0
    9.3930    8.8200   23.5120 C   0  0  0  0  0  0  0  0  0  0  0  0
    6.5160   12.3140   26.0740 C   0  0  0  0  0  0  0  0  0  0  0  0
    5.6970   11.2810   26.4840 C   0  0  0  0  0  0  0  0  0  0  0  0
    5.9370   10.0040   26.0520 C   0  0  0  0  0  0  0  0  0  0  0  0
    6.9890    9.7430   25.1840 C   0  0  0  0  0  0  0  0  0  0  0  0
 14 13  1  0
 13 12  1  0
 12 18  2  0
 18 17  1  0
 17 16  2  0
 16 15  1  0
 15 11  2  0
 12 11  1  0
 11 10  1  0
 10  2  1  0
  2  1  2  0
  3  2  1  0
  3  9  1  0
  9  8  1  0
  8  7  1  0
  7  5  1  0
  5  6  1  6
  5  4  1  0
  4  3  1  0
M  END
>  <smiles>  (183) 
CSc1ccccc1CC(=O)N1CCC[C@H](O)C1

>  <inchikey>  (183) 
IIOAYFHECFIEIZ-LBPRGKRZSA-N

>  <alias>  (183) 
A4794a

$$$$
A4806a
     RDKit          3D

 20 22  0  0  0  0  0  0  0  0999 V2000
    7.1130   13.6550   22.2680 O   0  0  0  0  0  0  0  0  0  0  0  0
    7.9520   13.9720   23.0950 C   0  0  0  0  0  0  0  0  0  0  0  0
    8.9080   14.8880   22.8180 N   0  0  0  0  0  0  0  0  0  0  0  0
    9.8900   15.4140   23.7840 C   0  0  0  0  0  0  0  0  0  0  0  0
   11.3150   15.2020   23.2890 C   0  0  0  0  0  0  0  0  0  0  0  0
   11.4800   15.7340   21.8610 C   0  0  0  0  0  0  0  0  0  0  0  0
    9.0470   15.4270   21.4620 C   0  0  0  0  0  0  0  0  0  0  0  0
   10.4390   15.1060   20.9160 C   0  0  1  0  0  0  0  0  0  0  0  0
   10.5660   15.6360   19.4980 C   0  0  0  0  0  0  0  0  0  0  0  0
   10.3000   16.8070   19.2330 O   0  0  0  0  0  0  0  0  0  0  0  0
   10.9290   14.7570   18.5790 N   0  0  0  0  0  0  0  0  0  0  0  0
    7.9610   13.2990   24.4650 C   0  0  2  0  0  0  0  0  0  0  0  0
    8.1720   11.8210   24.2040 C   0  0  0  0  0  0  0  0  0  0  0  0
    7.3360   10.9670   24.9260 C   0  0  0  0  0  0  0  0  0  0  0  0
    6.1090   11.8010   25.8700 S   0  0  0  0  0  0  0  0  0  0  0  0
    6.5910   13.3920   25.1600 C   0  0  0  0  0  0  0  0  0  0  0  0
    9.1500   11.2650   23.3810 C   0  0  0  0  0  0  0  0  0  0  0  0
    9.2770    9.8900   23.2720 C   0  0  0  0  0  0  0  0  0  0  0  0
    8.4210    9.0550   23.9690 C   0  0  0  0  0  0  0  0  0  0  0  0
    7.4480    9.5850   24.8040 C   0  0  0  0  0  0  0  0  0  0  0  0
 11  9  1  0
 10  9  2  0
  8  9  1  6
  8  6  1  0
  6  5  1  0
  5  4  1  0
  4  3  1  0
  3  2  1  0
  2  1  2  0
 12  2  1  6
 12 16  1  0
 16 15  1  0
 15 14  1  0
 14 20  2  0
 20 19  1  0
 19 18  2  0
 18 17  1  0
 17 13  2  0
 14 13  1  0
 13 12  1  0
  7  3  1  0
  8  7  1  0
M  END
>  <smiles>  (184) 
NC(=O)[C@H]1CCCN(C(=O)[C@H]2CSc3ccccc32)C1

>  <inchikey>  (184) 
BHNNBJPWVZNUPG-JQWIXIFHSA-N

>  <alias>  (184) 
A4806a

$$$$
A4836a
     RDKit          3D

 23 25  0  0  0  0  0  0  0  0999 V2000
   10.2610   16.6100   19.2240 O   0  0  0  0  0  0  0  0  0  0  0  0
   10.6360   15.4460   19.4130 C   0  0  0  0  0  0  0  0  0  0  0  0
   10.9460   14.6100   18.4340 N   0  0  0  0  0  0  0  0  0  0  0  0
   10.7590   14.8840   20.8190 C   0  0  1  0  0  0  0  0  0  0  0  0
   11.9430   15.5170   21.5700 C   0  0  0  0  0  0  0  0  0  0  0  0
   12.0140   15.0200   23.0150 C   0  0  0  0  0  0  0  0  0  0  0  0
   10.6850   15.2280   23.7180 C   0  0  0  0  0  0  0  0  0  0  0  0
    9.4560   15.1210   21.5900 C   0  0  0  0  0  0  0  0  0  0  0  0
    9.5940   14.6020   22.9550 N   0  0  0  0  0  0  0  0  0  0  0  0
    8.7730   13.6390   23.4180 C   0  0  0  0  0  0  0  0  0  0  0  0
    7.8860   13.1620   22.7280 O   0  0  0  0  0  0  0  0  0  0  0  0
    8.9570   13.1930   24.8730 C   0  0  2  0  0  0  0  0  0  0  0  0
    8.2860   11.9100   25.1380 N   0  0  0  0  0  0  0  0  0  0  0  0
    8.8050   10.7400   24.6510 C   0  0  0  0  0  0  0  0  0  0  0  0
    9.8420   10.7310   23.9800 O   0  0  0  0  0  0  0  0  0  0  0  0
    8.0280    9.5000   24.8840 C   0  0  0  0  0  0  0  0  0  0  0  0
    8.3110   14.1930   25.8500 C   0  0  0  0  0  0  0  0  0  0  0  0
    7.1200   13.4450   26.3830 C   0  0  0  0  0  0  0  0  0  0  0  0
    7.1470   12.1170   25.9650 C   0  0  0  0  0  0  0  0  0  0  0  0
    6.0970   13.8840   27.2140 C   0  0  0  0  0  0  0  0  0  0  0  0
    5.1130   13.0000   27.6130 C   0  0  0  0  0  0  0  0  0  0  0  0
    5.1460   11.6850   27.1970 C   0  0  0  0  0  0  0  0  0  0  0  0
    6.1600   11.2280   26.3670 C   0  0  0  0  0  0  0  0  0  0  0  0
 16 14  1  0
 15 14  2  0
 14 13  1  0
 13 19  1  0
 19 23  2  0
 23 22  1  0
 22 21  2  0
 21 20  1  0
 20 18  2  0
 19 18  1  0
 18 17  1  0
 17 12  1  0
 13 12  1  0
 12 10  1  6
 11 10  2  0
 10  9  1  0
  9  7  1  0
  7  6  1  0
  6  5  1  0
  5  4  1  0
  4  2  1  6
  3  2  1  0
  2  1  2  0
  8  4  1  0
  9  8  1  0
M  END
>  <smiles>  (185) 
CC(=O)N1c2ccccc2C[C@@H]1C(=O)N1CCC[C@H](C(N)=O)C1

>  <inchikey>  (185) 
NNSQUXOVPSSSEM-DZGCQCFKSA-N

>  <alias>  (185) 
A4836a

$$$$
A4840a
     RDKit          3D

 21 22  0  0  0  0  0  0  0  0999 V2000
   10.3030   16.6110   19.0700 O   0  0  0  0  0  0  0  0  0  0  0  0
   10.7490   15.4900   19.3380 C   0  0  0  0  0  0  0  0  0  0  0  0
   11.2480   14.6780   18.4240 N   0  0  0  0  0  0  0  0  0  0  0  0
   10.7610   14.9680   20.7650 C   0  0  1  0  0  0  0  0  0  0  0  0
   11.9260   15.5550   21.5760 C   0  0  0  0  0  0  0  0  0  0  0  0
   11.9960   14.9490   22.9770 C   0  0  0  0  0  0  0  0  0  0  0  0
   10.6610   15.0660   23.6910 C   0  0  0  0  0  0  0  0  0  0  0  0
    9.4500   15.1630   21.5320 C   0  0  0  0  0  0  0  0  0  0  0  0
    9.5560   14.5530   22.8610 N   0  0  0  0  0  0  0  0  0  0  0  0
    8.6700   13.6150   23.2640 C   0  0  0  0  0  0  0  0  0  0  0  0
    7.6680   13.3510   22.6190 O   0  0  0  0  0  0  0  0  0  0  0  0
    8.9810   12.9180   24.5770 C   0  0  0  0  0  0  0  0  0  0  0  0
    7.8980   11.9610   25.0260 C   0  0  0  0  0  0  0  0  0  0  0  0
    8.0080   10.5710   24.8440 C   0  0  0  0  0  0  0  0  0  0  0  0
    9.1380    9.9350   24.0870 C   0  0  0  0  0  0  0  0  0  0  0  0
   10.2130   10.5350   23.9560 O   0  0  0  0  0  0  0  0  0  0  0  0
    8.9580    8.7170   23.5970 N   0  0  0  0  0  0  0  0  0  0  0  0
    6.8420   12.4550   25.7870 C   0  0  0  0  0  0  0  0  0  0  0  0
    5.9550   11.6000   26.4160 C   0  0  0  0  0  0  0  0  0  0  0  0
    6.0810   10.2450   26.2610 C   0  0  0  0  0  0  0  0  0  0  0  0
    7.0780    9.7260   25.4520 C   0  0  0  0  0  0  0  0  0  0  0  0
 17 15  1  0
 16 15  2  0
 15 14  1  0
 14 21  2  0
 21 20  1  0
 20 19  2  0
 19 18  1  0
 18 13  2  0
 14 13  1  0
 13 12  1  0
 12 10  1  0
 11 10  2  0
 10  9  1  0
  9  7  1  0
  7  6  1  0
  6  5  1  0
  5  4  1  0
  4  2  1  6
  3  2  1  0
  2  1  2  0
  8  4  1  0
  9  8  1  0
M  END
>  <smiles>  (186) 
NC(=O)c1ccccc1CC(=O)N1CCC[C@H](C(N)=O)C1

>  <inchikey>  (186) 
KSEBAGNDQOTDCD-NSHDSACASA-N

>  <alias>  (186) 
A4840a

$$$$
A4846a
     RDKit          3D

 19 20  0  0  0  0  0  0  0  0999 V2000
   10.1670   16.5070   19.5330 O   0  0  0  0  0  0  0  0  0  0  0  0
   10.5570   15.3490   19.7420 C   0  0  0  0  0  0  0  0  0  0  0  0
   11.0630   14.5800   18.7860 N   0  0  0  0  0  0  0  0  0  0  0  0
   10.3690   14.6900   21.0990 C   0  0  1  0  0  0  0  0  0  0  0  0
   11.3800   15.1670   22.1540 C   0  0  0  0  0  0  0  0  0  0  0  0
   11.1840   14.3760   23.4570 C   0  0  0  0  0  0  0  0  0  0  0  0
    9.7340   14.4550   23.9590 C   0  0  0  0  0  0  0  0  0  0  0  0
    8.9760   14.9560   21.6610 C   0  0  0  0  0  0  0  0  0  0  0  0
    8.7690   14.1690   22.8830 N   0  0  0  0  0  0  0  0  0  0  0  0
    7.7150   13.3250   22.9480 C   0  0  0  0  0  0  0  0  0  0  0  0
    6.9280   13.1880   22.0180 O   0  0  0  0  0  0  0  0  0  0  0  0
    7.5010   12.5140   24.2000 C   0  0  0  0  0  0  0  0  0  0  0  0
    8.0990   11.2450   24.3280 C   0  0  0  0  0  0  0  0  0  0  0  0
    9.3890   10.7880   23.2040 S   0  0  0  0  0  0  0  0  0  0  0  0
    9.3540    8.9640   23.2090 C   0  0  0  0  0  0  0  0  0  0  0  0
    6.5100   12.8990   25.1060 C   0  0  0  0  0  0  0  0  0  0  0  0
    6.0850   12.0170   26.0900 C   0  0  0  0  0  0  0  0  0  0  0  0
    6.6330   10.7560   26.1730 C   0  0  0  0  0  0  0  0  0  0  0  0
    7.6430   10.3710   25.3080 C   0  0  0  0  0  0  0  0  0  0  0  0
 15 14  1  0
 14 13  1  0
 13 19  2  0
 19 18  1  0
 18 17  2  0
 17 16  1  0
 16 12  2  0
 13 12  1  0
 12 10  1  0
 11 10  2  0
 10  9  1  0
  9  7  1  0
  7  6  1  0
  6  5  1  0
  5  4  1  0
  4  2  1  6
  3  2  1  0
  2  1  2  0
  8  4  1  0
  9  8  1  0
M  END
>  <smiles>  (187) 
CSc1ccccc1C(=O)N1CCC[C@H](C(N)=O)C1

>  <inchikey>  (187) 
YOUXGCKURFHYGE-JTQLQIEISA-N

>  <alias>  (187) 
A4846a

$$$$
A4855a
     RDKit          3D

 19 20  0  0  0  0  0  0  0  0999 V2000
   10.3080   16.5280   19.2930 O   0  0  0  0  0  0  0  0  0  0  0  0
   10.8500   15.4340   19.4780 C   0  0  0  0  0  0  0  0  0  0  0  0
   11.1980   14.6230   18.4850 N   0  0  0  0  0  0  0  0  0  0  0  0
   11.0890   14.9080   20.8830 C   0  0  1  0  0  0  0  0  0  0  0  0
   11.8620   15.8700   21.8120 C   0  0  0  0  0  0  0  0  0  0  0  0
   11.5900   15.2870   23.2000 C   0  0  0  0  0  0  0  0  0  0  0  0
    9.7810   14.7440   21.6660 C   0  0  0  0  0  0  0  0  0  0  0  0
   10.2510   14.6970   23.0540 N   0  0  0  0  0  0  0  0  0  0  0  0
    9.6080   14.0670   24.0690 C   0  0  0  0  0  0  0  0  0  0  0  0
   10.0940   14.0180   25.1960 O   0  0  0  0  0  0  0  0  0  0  0  0
    8.3630   13.5830   23.7890 N   0  0  0  0  0  0  0  0  0  0  0  0
    7.6650   12.6910   24.6540 C   0  0  0  0  0  0  0  0  0  0  0  0
    7.9630   11.3260   24.5180 C   0  0  0  0  0  0  0  0  0  0  0  0
    9.2130   10.9000   23.3350 S   0  0  0  0  0  0  0  0  0  0  0  0
    9.1980    9.1010   23.2980 C   0  0  0  0  0  0  0  0  0  0  0  0
    6.7030   13.0960   25.5840 C   0  0  0  0  0  0  0  0  0  0  0  0
    6.0220   12.1480   26.3410 C   0  0  0  0  0  0  0  0  0  0  0  0
    6.2980   10.8060   26.1870 C   0  0  0  0  0  0  0  0  0  0  0  0
    7.2690   10.3880   25.2840 C   0  0  0  0  0  0  0  0  0  0  0  0
 15 14  1  0
 14 13  1  0
 13 19  2  0
 19 18  1  0
 18 17  2  0
 17 16  1  0
 16 12  2  0
 13 12  1  0
 12 11  1  0
 11  9  1  0
 10  9  2  0
  9  8  1  0
  8  6  1  0
  6  5  1  0
  5  4  1  0
  4  2  1  6
  3  2  1  0
  2  1  2  0
  7  4  1  0
  8  7  1  0
M  END
>  <smiles>  (188) 
CSc1ccccc1NC(=O)N1CC[C@H](C(N)=O)C1

>  <inchikey>  (188) 
RUITYHVLQKGYIF-VIFPVBQESA-N

>  <alias>  (188) 
A4855a

$$$$
A4873a
     RDKit          3D

 21 22  0  0  0  0  0  0  0  0999 V2000
    6.0210   13.7980   25.8910 Cl  0  0  0  0  0  0  0  0  0  0  0  0
    6.6520   12.2370   25.5460 C   0  0  0  0  0  0  0  0  0  0  0  0
    5.9710   11.1100   26.0020 C   0  0  0  0  0  0  0  0  0  0  0  0
    4.8200   11.3620   26.6870 O   0  0  0  0  0  0  0  0  0  0  0  0
    4.1610   10.2610   27.3050 C   0  0  0  0  0  0  0  0  0  0  0  0
    7.8370   12.1080   24.8200 C   0  0  0  0  0  0  0  0  0  0  0  0
    8.3320   10.8330   24.5670 C   0  0  0  0  0  0  0  0  0  0  0  0
    7.6500    9.7170   25.0250 C   0  0  0  0  0  0  0  0  0  0  0  0
    6.4710    9.8490   25.7370 C   0  0  0  0  0  0  0  0  0  0  0  0
    8.5000   13.2650   24.3480 N   0  0  0  0  0  0  0  0  0  0  0  0
    8.3880   13.7600   23.0990 C   0  0  0  0  0  0  0  0  0  0  0  0
    7.5840   13.3230   22.2960 O   0  0  0  0  0  0  0  0  0  0  0  0
    9.1790   14.8260   22.8080 N   0  0  0  0  0  0  0  0  0  0  0  0
    9.2770   15.3230   21.4360 C   0  0  0  0  0  0  0  0  0  0  0  0
   10.6230   14.9390   20.8250 C   0  0  1  0  0  0  0  0  0  0  0  0
   10.6650   15.4660   19.4010 C   0  0  0  0  0  0  0  0  0  0  0  0
   10.4160   16.6460   19.1520 O   0  0  0  0  0  0  0  0  0  0  0  0
   10.9570   14.5820   18.4640 N   0  0  0  0  0  0  0  0  0  0  0  0
   11.7160   15.5700   21.6870 C   0  0  0  0  0  0  0  0  0  0  0  0
   11.6220   15.0600   23.1190 C   0  0  0  0  0  0  0  0  0  0  0  0
   10.2420   15.3110   23.6950 C   0  0  0  0  0  0  0  0  0  0  0  0
  5  4  1  0
  4  3  1  0
  3  9  2  0
  9  8  1  0
  8  7  2  0
  7  6  1  0
 10  6  1  0
 11 10  1  0
 12 11  2  0
 13 11  1  0
 13 21  1  0
 21 20  1  0
 20 19  1  0
 19 15  1  0
 15 16  1  6
 18 16  1  0
 17 16  2  0
 15 14  1  0
 14 13  1  0
  6  2  2  0
  3  2  1  0
  2  1  1  0
M  END
>  <smiles>  (189) 
COc1cccc(NC(=O)N2CCC[C@H](C(N)=O)C2)c1Cl

>  <inchikey>  (189) 
DFGLJBPMZPVSMK-VIFPVBQESA-N

>  <alias>  (189) 
A4873a

$$$$
A4873b
     RDKit          3D

 21 22  0  0  0  0  0  0  0  0999 V2000
    7.1170   13.5430   26.2600 Cl  0  0  0  0  0  0  0  0  0  0  0  0
    7.6260   11.9890   25.7360 C   0  0  0  0  0  0  0  0  0  0  0  0
    6.9600   10.8400   26.1830 C   0  0  0  0  0  0  0  0  0  0  0  0
    5.9360   11.0590   27.0610 O   0  0  0  0  0  0  0  0  0  0  0  0
    5.0340    9.9770   27.3200 C   0  0  0  0  0  0  0  0  0  0  0  0
    8.7020   11.8800   24.8550 C   0  0  0  0  0  0  0  0  0  0  0  0
    9.0850   10.6210   24.4000 C   0  0  0  0  0  0  0  0  0  0  0  0
    8.4120    9.4900   24.8370 C   0  0  0  0  0  0  0  0  0  0  0  0
    7.3580    9.5950   25.7280 C   0  0  0  0  0  0  0  0  0  0  0  0
    9.3540   13.0650   24.4320 N   0  0  0  0  0  0  0  0  0  0  0  0
    8.9580   13.6950   23.2850 C   0  0  0  0  0  0  0  0  0  0  0  0
    7.9970   13.2970   22.6250 O   0  0  0  0  0  0  0  0  0  0  0  0
    9.6640   14.8120   22.9340 N   0  0  0  0  0  0  0  0  0  0  0  0
    9.5540   15.2920   21.5520 C   0  0  0  0  0  0  0  0  0  0  0  0
   10.8710   15.0560   20.8060 C   0  0  1  0  0  0  0  0  0  0  0  0
   10.7540   15.5680   19.3810 C   0  0  0  0  0  0  0  0  0  0  0  0
   10.3520   16.7180   19.1500 O   0  0  0  0  0  0  0  0  0  0  0  0
   10.9920   14.6680   18.4280 N   0  0  0  0  0  0  0  0  0  0  0  0
   12.0200   15.7450   21.5720 C   0  0  0  0  0  0  0  0  0  0  0  0
   12.0770   15.2470   23.0200 C   0  0  0  0  0  0  0  0  0  0  0  0
   10.7350   15.4510   23.7150 C   0  0  0  0  0  0  0  0  0  0  0  0
  5  4  1  0
  4  3  1  0
  3  9  2  0
  9  8  1  0
  8  7  2  0
  7  6  1  0
 10  6  1  0
 11 10  1  0
 12 11  2  0
 13 11  1  0
 13 21  1  0
 21 20  1  0
 20 19  1  0
 19 15  1  0
 15 16  1  6
 18 16  1  0
 17 16  2  0
 15 14  1  0
 14 13  1  0
  6  2  2  0
  3  2  1  0
  2  1  1  0
M  END
>  <smiles>  (190) 
COc1cccc(NC(=O)N2CCC[C@H](C(N)=O)C2)c1Cl

>  <inchikey>  (190) 
DFGLJBPMZPVSMK-VIFPVBQESA-N

>  <alias>  (190) 
A4873b

$$$$
A4874a
     RDKit          3D

 18 19  0  0  0  0  0  0  0  0999 V2000
   10.1390   16.6150   19.2090 O   0  0  0  0  0  0  0  0  0  0  0  0
   10.4600   15.4570   19.5000 C   0  0  0  0  0  0  0  0  0  0  0  0
   10.7580   14.5340   18.5900 N   0  0  0  0  0  0  0  0  0  0  0  0
   10.3870   14.9630   20.9320 C   0  0  1  0  0  0  0  0  0  0  0  0
   11.4410   15.6180   21.8410 C   0  0  0  0  0  0  0  0  0  0  0  0
   11.3090   15.0740   23.2610 C   0  0  0  0  0  0  0  0  0  0  0  0
    9.8850   15.2650   23.7680 C   0  0  0  0  0  0  0  0  0  0  0  0
    8.9690   15.1720   21.4790 C   0  0  0  0  0  0  0  0  0  0  0  0
    8.9070   14.6510   22.8480 N   0  0  0  0  0  0  0  0  0  0  0  0
    8.0180   13.6870   23.1740 C   0  0  0  0  0  0  0  0  0  0  0  0
    7.2240   13.2500   22.3560 O   0  0  0  0  0  0  0  0  0  0  0  0
    8.0540   13.1390   24.5870 C   0  0  1  0  0  0  0  0  0  0  0  0
    6.6940   13.3440   25.2610 C   0  0  0  0  0  0  0  0  0  0  0  0
    8.3780   11.6840   24.3730 C   0  0  0  0  0  0  0  0  0  0  0  0
    7.6560   10.6730   24.8820 N   0  0  0  0  0  0  0  0  0  0  0  0
    8.1870    9.4670   24.5340 N   0  0  0  0  0  0  0  0  0  0  0  0
    9.2620    9.7470   23.8090 C   0  0  0  0  0  0  0  0  0  0  0  0
    9.4310   11.1260   23.6880 C   0  0  0  0  0  0  0  0  0  0  0  0
 12 13  1  6
 12 10  1  0
 11 10  2  0
 10  9  1  0
  9  7  1  0
  7  6  1  0
  6  5  1  0
  5  4  1  0
  4  2  1  6
  3  2  1  0
  2  1  2  0
  8  4  1  0
  9  8  1  0
 14 12  1  0
 14 18  2  0
 18 17  1  0
 17 16  2  0
 16 15  1  0
 15 14  1  0
M  END
>  <smiles>  (191) 
C[C@H](C(=O)N1CCC[C@H](C(N)=O)C1)c1ccn[nH]1

>  <inchikey>  (191) 
RXLSVIOBXFEABB-IUCAKERBSA-N

>  <alias>  (191) 
A4874a

$$$$
A4877a
     RDKit          3D

 20 22  0  0  0  0  0  0  0  0999 V2000
    7.6690   13.3590   22.4370 O   0  0  0  0  0  0  0  0  0  0  0  0
    8.5170   13.8100   23.1810 C   0  0  0  0  0  0  0  0  0  0  0  0
    9.3080   14.8330   22.8130 N   0  0  0  0  0  0  0  0  0  0  0  0
   10.3440   15.4570   23.6610 C   0  0  0  0  0  0  0  0  0  0  0  0
   11.7220   15.2720   23.0720 C   0  0  0  0  0  0  0  0  0  0  0  0
   11.7450   15.7720   21.6270 C   0  0  0  0  0  0  0  0  0  0  0  0
    9.2820   15.3270   21.4330 C   0  0  0  0  0  0  0  0  0  0  0  0
   10.6500   15.0690   20.8070 C   0  0  1  0  0  0  0  0  0  0  0  0
   10.6320   15.5690   19.3750 C   0  0  0  0  0  0  0  0  0  0  0  0
   10.3270   16.7360   19.1100 O   0  0  0  0  0  0  0  0  0  0  0  0
   10.9470   14.6860   18.4340 N   0  0  0  0  0  0  0  0  0  0  0  0
    8.6890   13.2930   24.6020 C   0  0  2  0  0  0  0  0  0  0  0  0
    8.3030   11.8550   24.5960 C   0  0  0  0  0  0  0  0  0  0  0  0
    9.1140   10.8980   23.8840 C   0  0  0  0  0  0  0  0  0  0  0  0
    8.6750    9.6800   24.0400 C   0  0  0  0  0  0  0  0  0  0  0  0
    7.2800    9.5980   25.0090 S   0  0  0  0  0  0  0  0  0  0  0  0
    7.2730   11.2710   25.2440 C   0  0  0  0  0  0  0  0  0  0  0  0
    6.2330   11.9860   26.0650 C   0  0  0  0  0  0  0  0  0  0  0  0
    6.1010   13.4200   25.5870 C   0  0  0  0  0  0  0  0  0  0  0  0
    7.6670   14.3110   25.7230 S   0  0  0  0  0  0  0  0  0  0  0  0
 11  9  1  0
 10  9  2  0
  8  9  1  6
  8  6  1  0
  6  5  1  0
  5  4  1  0
  4  3  1  0
  3  2  1  0
  2  1  2  0
 12  2  1  6
 12 20  1  0
 20 19  1  0
 19 18  1  0
 18 17  1  0
 17 16  1  0
 16 15  1  0
 15 14  2  0
 14 13  1  0
 17 13  2  0
 13 12  1  0
  7  3  1  0
  8  7  1  0
M  END
>  <smiles>  (192) 
NC(=O)[C@H]1CCCN(C(=O)[C@H]2SCCc3sccc32)C1

>  <inchikey>  (192) 
JGVWWHNRUSJGFG-CABZTGNLSA-N

>  <alias>  (192) 
A4877a

$$$$
A4877b
     RDKit          3D

 20 22  0  0  0  0  0  0  0  0999 V2000
    7.9510   13.3150   22.6250 O   0  0  0  0  0  0  0  0  0  0  0  0
    8.8520   13.7890   23.3050 C   0  0  0  0  0  0  0  0  0  0  0  0
    9.6000   14.8320   22.8950 N   0  0  0  0  0  0  0  0  0  0  0  0
   10.6270   15.5380   23.6790 C   0  0  0  0  0  0  0  0  0  0  0  0
   11.9920   15.3740   23.0330 C   0  0  0  0  0  0  0  0  0  0  0  0
   11.9570   15.8210   21.5630 C   0  0  0  0  0  0  0  0  0  0  0  0
    9.5160   15.2810   21.5020 C   0  0  0  0  0  0  0  0  0  0  0  0
   10.8620   15.0590   20.7980 C   0  0  1  0  0  0  0  0  0  0  0  0
   10.7490   15.5340   19.3630 C   0  0  0  0  0  0  0  0  0  0  0  0
   10.3930   16.6970   19.1000 O   0  0  0  0  0  0  0  0  0  0  0  0
   11.0060   14.6210   18.4340 N   0  0  0  0  0  0  0  0  0  0  0  0
    9.1220   13.2530   24.7100 C   0  0  2  0  0  0  0  0  0  0  0  0
    8.7910   11.7920   24.6830 C   0  0  0  0  0  0  0  0  0  0  0  0
    9.5530   10.8760   23.8890 C   0  0  0  0  0  0  0  0  0  0  0  0
    9.1630    9.6150   24.0540 C   0  0  0  0  0  0  0  0  0  0  0  0
    7.9100    9.4560   25.1130 S   0  0  0  0  0  0  0  0  0  0  0  0
    7.8460   11.1460   25.3960 C   0  0  0  0  0  0  0  0  0  0  0  0
    6.8820   11.7950   26.3480 C   0  0  0  0  0  0  0  0  0  0  0  0
    6.6560   13.2330   25.9180 C   0  0  0  0  0  0  0  0  0  0  0  0
    8.1830   14.2010   25.9620 S   0  0  0  0  0  0  0  0  0  0  0  0
 11  9  1  0
 10  9  2  0
  8  9  1  6
  8  6  1  0
  6  5  1  0
  5  4  1  0
  4  3  1  0
  3  2  1  0
  2  1  2  0
 12  2  1  6
 12 20  1  0
 20 19  1  0
 19 18  1  0
 18 17  1  0
 17 16  1  0
 16 15  1  0
 15 14  2  0
 14 13  1  0
 17 13  2  0
 13 12  1  0
  7  3  1  0
  8  7  1  0
M  END
>  <smiles>  (193) 
NC(=O)[C@H]1CCCN(C(=O)[C@H]2SCCc3sccc32)C1

>  <inchikey>  (193) 
JGVWWHNRUSJGFG-CABZTGNLSA-N

>  <alias>  (193) 
A4877b

$$$$
A4934a
     RDKit          3D

 23 25  0  0  0  0  0  0  0  0999 V2000
   10.7850   14.6070   25.1990 O   0  0  0  0  0  0  0  0  0  0  0  0
   10.7930   14.7680   23.9740 C   0  0  0  0  0  0  0  0  0  0  0  0
   12.0520   15.2040   23.2530 C   0  0  0  0  0  0  0  0  0  0  0  0
   11.8690   15.7640   21.8350 C   0  0  0  0  0  0  0  0  0  0  0  0
    9.6820   14.5990   23.2190 N   0  0  0  0  0  0  0  0  0  0  0  0
    9.5340   14.8690   21.7790 C   0  0  0  0  0  0  0  0  0  0  0  0
   10.8770   14.9000   21.0340 C   0  0  1  0  0  0  0  0  0  0  0  0
   10.7000   15.4140   19.6120 C   0  0  0  0  0  0  0  0  0  0  0  0
   10.2330   16.5380   19.3920 O   0  0  0  0  0  0  0  0  0  0  0  0
   11.0170   14.5730   18.6410 N   0  0  0  0  0  0  0  0  0  0  0  0
    8.4520   14.1310   23.8680 C   0  0  0  0  0  0  0  0  0  0  0  0
    8.3880   12.6280   24.0430 C   0  0  0  0  0  0  0  0  0  0  0  0
    7.3830   12.0160   24.8100 C   0  0  0  0  0  0  0  0  0  0  0  0
    7.3980   10.6290   24.9710 C   0  0  0  0  0  0  0  0  0  0  0  0
    8.3710    9.8580   24.3660 C   0  0  0  0  0  0  0  0  0  0  0  0
    9.3580   10.4510   23.6240 C   0  0  0  0  0  0  0  0  0  0  0  0
    9.3720   11.8240   23.4620 C   0  0  0  0  0  0  0  0  0  0  0  0
    6.2870   12.7680   25.4810 C   0  0  0  0  0  0  0  0  0  0  0  0
    5.3810   13.5540   24.7700 C   0  0  0  0  0  0  0  0  0  0  0  0
    4.2810   14.0990   25.2990 N   0  0  0  0  0  0  0  0  0  0  0  0
    4.0470   13.8730   26.5970 C   0  0  0  0  0  0  0  0  0  0  0  0
    4.8820   13.1260   27.3960 C   0  0  0  0  0  0  0  0  0  0  0  0
    6.0120   12.5690   26.8270 C   0  0  0  0  0  0  0  0  0  0  0  0
 10  8  1  0
  9  8  2  0
  7  8  1  6
  7  4  1  0
  4  3  1  0
  3  2  1  0
  2  1  2  0
  5  2  1  0
 11  5  1  0
 12 11  1  0
 12 17  1  0
 17 16  2  0
 16 15  1  0
 15 14  2  0
 14 13  1  0
 13 12  2  0
 18 13  1  0
 18 23  2  0
 23 22  1  0
 22 21  2  0
 21 20  1  0
 20 19  2  0
 19 18  1  0
  6  5  1  0
  7  6  1  0
M  END
>  <smiles>  (194) 
NC(=O)[C@H]1CCC(=O)N(Cc2ccccc2-c2cccnc2)C1

>  <inchikey>  (194) 
BENGMPPJNGGMDU-HNNXBMFYSA-N

>  <alias>  (194) 
A4934a

$$$$
A4943a
     RDKit          3D

 21 23  0  0  0  0  0  0  0  0999 V2000
    7.1340   13.5700   22.1050 O   0  0  0  0  0  0  0  0  0  0  0  0
    7.8980   13.9360   22.9780 C   0  0  0  0  0  0  0  0  0  0  0  0
    8.8490   14.8900   22.7510 N   0  0  0  0  0  0  0  0  0  0  0  0
    9.8000   15.4690   23.7180 C   0  0  0  0  0  0  0  0  0  0  0  0
   11.2420   15.2550   23.2700 C   0  0  0  0  0  0  0  0  0  0  0  0
   11.4420   15.7920   21.8350 C   0  0  0  0  0  0  0  0  0  0  0  0
    9.0060   15.4240   21.3920 C   0  0  0  0  0  0  0  0  0  0  0  0
   10.4220   15.1270   20.8860 C   0  0  1  0  0  0  0  0  0  0  0  0
   10.5620   15.6160   19.4530 C   0  0  0  0  0  0  0  0  0  0  0  0
   10.2830   16.7840   19.1420 O   0  0  0  0  0  0  0  0  0  0  0  0
   10.9000   14.6840   18.5560 N   0  0  0  0  0  0  0  0  0  0  0  0
    7.7330   13.3620   24.3840 C   0  0  2  0  0  0  0  0  0  0  0  0
    7.9840   11.8660   24.2990 C   0  0  0  0  0  0  0  0  0  0  0  0
    8.9910   11.3950   23.4560 C   0  0  0  0  0  0  0  0  0  0  0  0
    9.1960   10.0360   23.2560 C   0  0  0  0  0  0  0  0  0  0  0  0
    8.3960    9.1250   23.9070 C   0  0  0  0  0  0  0  0  0  0  0  0
    7.4300    9.5600   24.7940 C   0  0  0  0  0  0  0  0  0  0  0  0
    7.2170   10.9240   24.9980 C   0  0  0  0  0  0  0  0  0  0  0  0
    5.9630   11.3090   26.1990 S   0  0  0  0  0  0  0  0  0  0  0  0
    6.0250   13.1050   26.2790 C   0  0  0  0  0  0  0  0  0  0  0  0
    6.3030   13.6740   24.8920 C   0  0  0  0  0  0  0  0  0  0  0  0
 11  9  1  0
 10  9  2  0
  8  9  1  6
  8  6  1  0
  6  5  1  0
  5  4  1  0
  4  3  1  0
  3  2  1  0
  2  1  2  0
 12  2  1  6
 12 21  1  0
 21 20  1  0
 20 19  1  0
 19 18  1  0
 18 17  1  0
 17 16  2  0
 16 15  1  0
 15 14  2  0
 14 13  1  0
 18 13  2  0
 13 12  1  0
  7  3  1  0
  8  7  1  0
M  END
>  <smiles>  (195) 
NC(=O)[C@H]1CCCN(C(=O)[C@H]2CCSc3ccccc32)C1

>  <inchikey>  (195) 
CIPSLIIOJPGGQL-AAEUAGOBSA-N

>  <alias>  (195) 
A4943a

$$$$
A4943b
     RDKit          3D

 21 23  0  0  0  0  0  0  0  0999 V2000
    7.3440   13.4930   22.3240 O   0  0  0  0  0  0  0  0  0  0  0  0
    8.1280   13.9080   23.1540 C   0  0  0  0  0  0  0  0  0  0  0  0
    9.0140   14.9070   22.8750 N   0  0  0  0  0  0  0  0  0  0  0  0
    9.9670   15.5500   23.7860 C   0  0  0  0  0  0  0  0  0  0  0  0
   11.3900   15.3920   23.2930 C   0  0  0  0  0  0  0  0  0  0  0  0
   11.5410   15.8760   21.8350 C   0  0  0  0  0  0  0  0  0  0  0  0
    9.0950   15.4160   21.5010 C   0  0  0  0  0  0  0  0  0  0  0  0
   10.5050   15.1740   20.9340 C   0  0  1  0  0  0  0  0  0  0  0  0
   10.5910   15.6560   19.4960 C   0  0  0  0  0  0  0  0  0  0  0  0
   10.2310   16.8110   19.1850 O   0  0  0  0  0  0  0  0  0  0  0  0
   10.8920   14.7180   18.5950 N   0  0  0  0  0  0  0  0  0  0  0  0
    8.0810   13.3430   24.5710 C   0  0  2  0  0  0  0  0  0  0  0  0
    8.2610   11.8410   24.4320 C   0  0  0  0  0  0  0  0  0  0  0  0
    9.2490   11.3700   23.5690 C   0  0  0  0  0  0  0  0  0  0  0  0
    9.4130   10.0080   23.3480 C   0  0  0  0  0  0  0  0  0  0  0  0
    8.6200    9.1000   23.9990 C   0  0  0  0  0  0  0  0  0  0  0  0
    7.6670    9.5350   24.8970 C   0  0  0  0  0  0  0  0  0  0  0  0
    7.4780   10.9020   25.1140 C   0  0  0  0  0  0  0  0  0  0  0  0
    6.2490   11.2890   26.3110 S   0  0  0  0  0  0  0  0  0  0  0  0
    6.3050   13.0710   26.4670 C   0  0  0  0  0  0  0  0  0  0  0  0
    6.6620   13.7090   25.1340 C   0  0  0  0  0  0  0  0  0  0  0  0
 11  9  1  0
 10  9  2  0
  8  9  1  6
  8  6  1  0
  6  5  1  0
  5  4  1  0
  4  3  1  0
  3  2  1  0
  2  1  2  0
 12  2  1  6
 12 21  1  0
 21 20  1  0
 20 19  1  0
 19 18  1  0
 18 17  1  0
 17 16  2  0
 16 15  1  0
 15 14  2  0
 14 13  1  0
 18 13  2  0
 13 12  1  0
  7  3  1  0
  8  7  1  0
M  END
>  <smiles>  (196) 
NC(=O)[C@H]1CCCN(C(=O)[C@H]2CCSc3ccccc32)C1

>  <inchikey>  (196) 
CIPSLIIOJPGGQL-AAEUAGOBSA-N

>  <alias>  (196) 
A4943b

$$$$
A4994a
     RDKit          3D

 20 22  0  0  0  0  0  0  0  0999 V2000
   10.2920   16.1340   19.1370 O   0  0  0  0  0  0  0  0  0  0  0  0
   10.8020   15.0320   19.3420 C   0  0  0  0  0  0  0  0  0  0  0  0
   11.4080   14.3370   18.4010 N   0  0  0  0  0  0  0  0  0  0  0  0
   10.7490   14.3840   20.7140 C   0  0  0  0  0  0  0  0  0  0  0  0
    9.4540   14.6560   21.5110 C   0  0  0  0  0  0  0  0  0  0  0  0
   11.5370   15.0240   21.8830 C   0  0  0  0  0  0  0  0  0  0  0  0
   10.3080   14.9140   22.6730 N   0  0  0  0  0  0  0  0  0  0  0  0
   10.1250   14.5220   23.9390 C   0  0  0  0  0  0  0  0  0  0  0  0
   11.0390   14.4430   24.7250 O   0  0  0  0  0  0  0  0  0  0  0  0
    8.6930   14.2310   24.3350 C   0  0  0  0  0  0  0  0  0  0  0  0
    8.3940   12.7640   24.3790 C   0  0  0  0  0  0  0  0  0  0  0  0
    9.0410   11.9360   23.6150 N   0  0  0  0  0  0  0  0  0  0  0  0
    7.4660   12.0670   25.2280 C   0  0  0  0  0  0  0  0  0  0  0  0
    7.6430   10.7230   24.9040 C   0  0  0  0  0  0  0  0  0  0  0  0
    8.6140   10.6810   23.9530 N   0  0  0  0  0  0  0  0  0  0  0  0
    9.4510    9.5510   23.5830 C   0  0  0  0  0  0  0  0  0  0  0  0
    6.9010    9.7270   25.5210 C   0  0  0  0  0  0  0  0  0  0  0  0
    5.9650   10.0950   26.4740 C   0  0  0  0  0  0  0  0  0  0  0  0
    5.7830   11.4260   26.8110 C   0  0  0  0  0  0  0  0  0  0  0  0
    6.5290   12.4170   26.1940 C   0  0  0  0  0  0  0  0  0  0  0  0
 16 15  1  0
 15 12  1  0
 12 11  2  0
 11 10  1  0
 10  8  1  0
  9  8  2  0
  8  7  1  0
  7  5  1  0
  5  4  1  0
  4  2  1  0
  3  2  1  0
  2  1  2  0
  6  4  1  0
  7  6  1  0
 13 11  1  0
 13 20  2  0
 20 19  1  0
 19 18  2  0
 18 17  1  0
 17 14  2  0
 14 13  1  0
 15 14  1  0
M  END
>  <smiles>  (197) 
Cn1nc(CC(=O)N2CC(C(N)=O)C2)c2ccccc21

>  <inchikey>  (197) 
IHURMLZWIOZVMJ-UHFFFAOYSA-N

>  <alias>  (197) 
A4994a

$$$$
A5036a
     RDKit          3D

 19 20  0  0  0  0  0  0  0  0999 V2000
   10.9160   14.7620   25.1440 O   0  0  0  0  0  0  0  0  0  0  0  0
   10.8830   14.8970   23.9310 C   0  0  0  0  0  0  0  0  0  0  0  0
   12.1550   15.1670   23.1640 C   0  0  0  0  0  0  0  0  0  0  0  0
   11.9390   15.6590   21.7290 C   0  0  0  0  0  0  0  0  0  0  0  0
   10.8380   14.8690   21.0040 C   0  0  2  0  0  0  0  0  0  0  0  0
   10.6480   15.3880   19.5880 C   0  0  0  0  0  0  0  0  0  0  0  0
   10.2410   16.5340   19.3790 O   0  0  0  0  0  0  0  0  0  0  0  0
   10.9520   14.5510   18.6080 N   0  0  0  0  0  0  0  0  0  0  0  0
    9.5340   15.0410   21.8000 C   0  0  0  0  0  0  0  0  0  0  0  0
    9.7270   14.8140   23.2390 N   0  0  0  0  0  0  0  0  0  0  0  0
    8.4660   14.5840   23.9550 C   0  0  0  0  0  0  0  0  0  0  0  0
    8.2010   13.1310   24.2680 C   0  0  0  0  0  0  0  0  0  0  0  0
    7.1800   12.7660   25.1390 C   0  0  0  0  0  0  0  0  0  0  0  0
    6.9100   11.4310   25.3970 C   0  0  0  0  0  0  0  0  0  0  0  0
    7.6490   10.4360   24.7820 C   0  0  0  0  0  0  0  0  0  0  0  0
    8.9510   12.1310   23.6600 C   0  0  0  0  0  0  0  0  0  0  0  0
    8.6620   10.7960   23.9050 C   0  0  0  0  0  0  0  0  0  0  0  0
    9.4710    9.9870   23.1570 O   0  0  0  0  0  0  0  0  0  0  0  0
    9.2600    8.5790   23.2280 C   0  0  0  0  0  0  0  0  0  0  0  0
 19 18  1  0
 18 17  1  0
 17 15  2  0
 15 14  1  0
 14 13  2  0
 13 12  1  0
 12 11  1  0
 11 10  1  0
 10  9  1  0
  9  5  1  0
  5  6  1  6
  8  6  1  0
  7  6  2  0
  5  4  1  0
  4  3  1  0
  3  2  1  0
 10  2  1  0
  2  1  2  0
 16 12  2  0
 17 16  1  0
M  END
>  <smiles>  (198) 
COc1cccc(CN2C[C@@H](C(N)=O)CCC2=O)c1

>  <inchikey>  (198) 
XEGDUXBUYNOVQA-NSHDSACASA-N

>  <alias>  (198) 
A5036a

$$$$
A5052a
     RDKit          3D

 20 22  0  0  0  0  0  0  0  0999 V2000
   10.5270   13.8950   24.7670 O   0  0  0  0  0  0  0  0  0  0  0  0
   10.5110   14.1410   23.5690 C   0  0  0  0  0  0  0  0  0  0  0  0
   11.8050   14.4810   22.8720 C   0  0  0  0  0  0  0  0  0  0  0  0
   11.7310   14.6690   21.3560 C   0  0  0  0  0  0  0  0  0  0  0  0
    9.3600   14.1070   22.8360 N   0  0  0  0  0  0  0  0  0  0  0  0
    9.2040   14.5890   21.4520 C   0  0  0  0  0  0  0  0  0  0  0  0
   10.4250   15.3490   20.9120 C   0  0  2  0  0  0  0  0  0  0  0  0
   10.3560   15.4980   19.4010 C   0  0  0  0  0  0  0  0  0  0  0  0
    9.7850   16.4640   18.8830 O   0  0  0  0  0  0  0  0  0  0  0  0
   10.9410   14.5480   18.6770 N   0  0  0  0  0  0  0  0  0  0  0  0
    8.1560   13.5100   23.4350 C   0  0  1  0  0  0  0  0  0  0  0  0
    8.3390   12.0650   23.8580 C   0  0  0  0  0  0  0  0  0  0  0  0
    9.3140   11.2880   23.2320 C   0  0  0  0  0  0  0  0  0  0  0  0
    9.3520    9.9170   23.4140 C   0  0  0  0  0  0  0  0  0  0  0  0
    8.4160    9.3060   24.2170 C   0  0  0  0  0  0  0  0  0  0  0  0
    7.4890   10.0710   24.9070 C   0  0  0  0  0  0  0  0  0  0  0  0
    7.4460   11.4540   24.7520 C   0  0  0  0  0  0  0  0  0  0  0  0
    6.4890   12.2690   25.5890 C   0  0  0  0  0  0  0  0  0  0  0  0
    6.2370   13.6800   25.0410 C   0  0  0  0  0  0  0  0  0  0  0  0
    7.5470   14.3220   24.5810 C   0  0  0  0  0  0  0  0  0  0  0  0
 10  8  1  0
  9  8  2  0
  7  8  1  6
  7  4  1  0
  4  3  1  0
  3  2  1  0
  2  1  2  0
  5  2  1  0
 11  5  1  1
 11 20  1  0
 20 19  1  0
 19 18  1  0
 18 17  1  0
 17 16  1  0
 16 15  2  0
 15 14  1  0
 14 13  2  0
 13 12  1  0
 17 12  2  0
 12 11  1  0
  6  5  1  0
  7  6  1  0
M  END
>  <smiles>  (199) 
NC(=O)[C@@H]1CCC(=O)N([C@@H]2CCCc3ccccc32)C1

>  <inchikey>  (199) 
OUROYAJWZKVYSV-TZMCWYRMSA-N

>  <alias>  (199) 
A5052a

$$$$
A5079a
     RDKit          3D

 19 20  0  0  0  0  0  0  0  0999 V2000
    9.4090   10.0190   23.5440 Cl  0  0  0  0  0  0  0  0  0  0  0  0
    8.1180   10.4460   24.6300 C   0  0  0  0  0  0  0  0  0  0  0  0
    7.3120    9.4720   24.9900 N   0  0  0  0  0  0  0  0  0  0  0  0
    6.3670    9.7830   25.8970 C   0  0  0  0  0  0  0  0  0  0  0  0
    6.2090   11.0500   26.4390 C   0  0  0  0  0  0  0  0  0  0  0  0
    7.0630   12.0590   26.0200 C   0  0  0  0  0  0  0  0  0  0  0  0
    8.0620   11.7850   25.0930 C   0  0  0  0  0  0  0  0  0  0  0  0
    9.0760   12.8400   24.7170 C   0  0  0  0  0  0  0  0  0  0  0  0
    8.7600   13.4970   23.3850 C   0  0  0  0  0  0  0  0  0  0  0  0
    7.8380   13.1050   22.6870 O   0  0  0  0  0  0  0  0  0  0  0  0
    9.5600   14.5190   23.0070 N   0  0  0  0  0  0  0  0  0  0  0  0
   10.6160   15.1270   23.8350 C   0  0  0  0  0  0  0  0  0  0  0  0
   11.9670   15.0080   23.1480 C   0  0  0  0  0  0  0  0  0  0  0  0
   11.9050   15.5770   21.7170 C   0  0  0  0  0  0  0  0  0  0  0  0
    9.4510   15.0960   21.6640 C   0  0  0  0  0  0  0  0  0  0  0  0
   10.7770   14.9140   20.9090 C   0  0  1  0  0  0  0  0  0  0  0  0
   10.7130   15.4520   19.4890 C   0  0  0  0  0  0  0  0  0  0  0  0
   10.3340   16.6070   19.2600 O   0  0  0  0  0  0  0  0  0  0  0  0
   11.0270   14.5910   18.5250 N   0  0  0  0  0  0  0  0  0  0  0  0
 19 17  1  0
 18 17  2  0
 16 17  1  6
 16 14  1  0
 14 13  1  0
 13 12  1  0
 12 11  1  0
 11  9  1  0
 10  9  2  0
  9  8  1  0
  8  7  1  0
  7  6  2  0
  6  5  1  0
  5  4  2  0
  4  3  1  0
  3  2  2  0
  7  2  1  0
  2  1  1  0
 15 11  1  0
 16 15  1  0
M  END
>  <smiles>  (200) 
NC(=O)[C@H]1CCCN(C(=O)Cc2cccnc2Cl)C1

>  <inchikey>  (200) 
MVRLSGDTKPBMCQ-JTQLQIEISA-N

>  <alias>  (200) 
A5079a

$$$$
A5079b
     RDKit          3D

 19 20  0  0  0  0  0  0  0  0999 V2000
    9.5240   10.0260   23.5290 Cl  0  0  0  0  0  0  0  0  0  0  0  0
    8.2610   10.4730   24.6380 C   0  0  0  0  0  0  0  0  0  0  0  0
    7.4220    9.5160   24.9960 N   0  0  0  0  0  0  0  0  0  0  0  0
    6.4930    9.8440   25.9110 C   0  0  0  0  0  0  0  0  0  0  0  0
    6.3720   11.1070   26.4570 C   0  0  0  0  0  0  0  0  0  0  0  0
    7.2540   12.1000   26.0450 C   0  0  0  0  0  0  0  0  0  0  0  0
    8.2460   11.8090   25.1110 C   0  0  0  0  0  0  0  0  0  0  0  0
    9.2660   12.8580   24.7210 C   0  0  0  0  0  0  0  0  0  0  0  0
    8.9360   13.5250   23.3990 C   0  0  0  0  0  0  0  0  0  0  0  0
    7.9960   13.1310   22.7120 O   0  0  0  0  0  0  0  0  0  0  0  0
    9.7290   14.5580   23.0150 N   0  0  0  0  0  0  0  0  0  0  0  0
   10.7730   15.2120   23.8250 C   0  0  0  0  0  0  0  0  0  0  0  0
   12.1260   15.1170   23.1140 C   0  0  0  0  0  0  0  0  0  0  0  0
   12.0330   15.6500   21.6710 C   0  0  0  0  0  0  0  0  0  0  0  0
    9.6020   15.1160   21.6640 C   0  0  0  0  0  0  0  0  0  0  0  0
   10.9130   14.9300   20.8880 C   0  0  1  0  0  0  0  0  0  0  0  0
   10.7990   15.4680   19.4710 C   0  0  0  0  0  0  0  0  0  0  0  0
   10.4040   16.6250   19.2560 O   0  0  0  0  0  0  0  0  0  0  0  0
   11.0940   14.6030   18.4980 N   0  0  0  0  0  0  0  0  0  0  0  0
 19 17  1  0
 18 17  2  0
 16 17  1  6
 16 14  1  0
 14 13  1  0
 13 12  1  0
 12 11  1  0
 11  9  1  0
 10  9  2  0
  9  8  1  0
  8  7  1  0
  7  6  2  0
  6  5  1  0
  5  4  2  0
  4  3  1  0
  3  2  2  0
  7  2  1  0
  2  1  1  0
 15 11  1  0
 16 15  1  0
M  END
>  <smiles>  (201) 
NC(=O)[C@H]1CCCN(C(=O)Cc2cccnc2Cl)C1

>  <inchikey>  (201) 
MVRLSGDTKPBMCQ-JTQLQIEISA-N

>  <alias>  (201) 
A5079b

$$$$
A5091a
     RDKit          3D

 19 20  0  0  0  0  0  0  0  0999 V2000
   10.2820   16.5050   18.8420 O   0  0  0  0  0  0  0  0  0  0  0  0
   10.7720   15.4120   19.1300 C   0  0  0  0  0  0  0  0  0  0  0  0
   11.1720   14.5420   18.2130 N   0  0  0  0  0  0  0  0  0  0  0  0
   10.9480   14.9820   20.5770 C   0  0  1  0  0  0  0  0  0  0  0  0
   11.8640   15.8860   21.4310 C   0  0  0  0  0  0  0  0  0  0  0  0
   11.5010   15.5300   22.8740 C   0  0  0  0  0  0  0  0  0  0  0  0
    9.6610   15.0410   21.3870 C   0  0  0  0  0  0  0  0  0  0  0  0
   10.1850   14.8800   22.7400 N   0  0  0  0  0  0  0  0  0  0  0  0
    9.6480   14.1220   23.7300 C   0  0  0  0  0  0  0  0  0  0  0  0
   10.2950   13.7900   24.7030 O   0  0  0  0  0  0  0  0  0  0  0  0
    8.3680   13.6500   23.5220 N   0  0  0  0  0  0  0  0  0  0  0  0
    7.2950   14.6350   23.4330 C   0  0  0  0  0  0  0  0  0  0  0  0
    7.9660   12.3580   24.0100 C   0  0  0  0  0  0  0  0  0  0  0  0
    6.9280   12.2520   24.9210 C   0  0  0  0  0  0  0  0  0  0  0  0
    6.5800   11.0120   25.4140 C   0  0  0  0  0  0  0  0  0  0  0  0
    7.2490    9.8820   24.9890 C   0  0  0  0  0  0  0  0  0  0  0  0
    8.6390   11.2150   23.5880 C   0  0  0  0  0  0  0  0  0  0  0  0
    8.2770    9.9630   24.0670 C   0  0  0  0  0  0  0  0  0  0  0  0
    8.9630    8.7170   23.5660 C   0  0  0  0  0  0  0  0  0  0  0  0
 19 18  1  0
 18 16  2  0
 16 15  1  0
 15 14  2  0
 14 13  1  0
 13 11  1  0
 12 11  1  0
 11  9  1  0
 10  9  2  0
  9  8  1  0
  8  6  1  0
  6  5  1  0
  5  4  1  0
  4  2  1  6
  3  2  1  0
  2  1  2  0
  7  4  1  0
  8  7  1  0
 17 13  2  0
 18 17  1  0
M  END
>  <smiles>  (202) 
Cc1cccc(N(C)C(=O)N2CC[C@H](C(N)=O)C2)c1

>  <inchikey>  (202) 
SACRPFIJTOHFAQ-NSHDSACASA-N

>  <alias>  (202) 
A5091a

$$$$
A5394a
     RDKit          3D

 19 20  0  0  0  0  0  0  0  0999 V2000
    9.4040   10.5260   23.4550 Cl  0  0  0  0  0  0  0  0  0  0  0  0
    8.0460   10.8120   24.5030 C   0  0  0  0  0  0  0  0  0  0  0  0
    7.2770    9.7290   24.8860 C   0  0  0  0  0  0  0  0  0  0  0  0
    6.2100    9.9270   25.7460 C   0  0  0  0  0  0  0  0  0  0  0  0
    5.9270   11.1900   26.2150 C   0  0  0  0  0  0  0  0  0  0  0  0
    6.7030   12.2690   25.8210 C   0  0  0  0  0  0  0  0  0  0  0  0
    7.7860   12.1010   24.9600 C   0  0  0  0  0  0  0  0  0  0  0  0
    8.7000   13.2650   24.6590 C   0  0  0  0  0  0  0  0  0  0  0  0
    8.5210   13.8110   23.2550 C   0  0  0  0  0  0  0  0  0  0  0  0
    7.6310   13.3990   22.5160 O   0  0  0  0  0  0  0  0  0  0  0  0
    9.3790   14.7860   22.8740 N   0  0  0  0  0  0  0  0  0  0  0  0
   10.4260   15.3660   23.7310 C   0  0  0  0  0  0  0  0  0  0  0  0
   11.8030   15.1880   23.1130 C   0  0  0  0  0  0  0  0  0  0  0  0
   11.8190   15.7140   21.6650 C   0  0  0  0  0  0  0  0  0  0  0  0
    9.3480   15.3010   21.5040 C   0  0  0  0  0  0  0  0  0  0  0  0
   10.7010   15.0620   20.8240 C   0  0  1  0  0  0  0  0  0  0  0  0
   10.7010   15.5650   19.3900 C   0  0  0  0  0  0  0  0  0  0  0  0
   10.3950   16.7320   19.1220 O   0  0  0  0  0  0  0  0  0  0  0  0
   11.0140   14.6690   18.4590 N   0  0  0  0  0  0  0  0  0  0  0  0
 19 17  1  0
 18 17  2  0
 16 17  1  6
 16 14  1  0
 14 13  1  0
 13 12  1  0
 12 11  1  0
 11  9  1  0
 10  9  2  0
  9  8  1  0
  8  7  1  0
  7  6  2  0
  6  5  1  0
  5  4  2  0
  4  3  1  0
  3  2  2  0
  7  2  1  0
  2  1  1  0
 15 11  1  0
 16 15  1  0
M  END
>  <smiles>  (203) 
NC(=O)[C@H]1CCCN(C(=O)Cc2ccccc2Cl)C1

>  <inchikey>  (203) 
BMLBKIFPNQZKDQ-NSHDSACASA-N

>  <alias>  (203) 
A5394a

$$$$
A5394b
     RDKit          3D

 19 20  0  0  0  0  0  0  0  0999 V2000
    9.7150   10.4790   23.5060 Cl  0  0  0  0  0  0  0  0  0  0  0  0
    8.4080   10.7620   24.6110 C   0  0  0  0  0  0  0  0  0  0  0  0
    7.6370    9.6780   24.9970 C   0  0  0  0  0  0  0  0  0  0  0  0
    6.6060    9.8710   25.9000 C   0  0  0  0  0  0  0  0  0  0  0  0
    6.3570   11.1250   26.4020 C   0  0  0  0  0  0  0  0  0  0  0  0
    7.1330   12.2000   26.0080 C   0  0  0  0  0  0  0  0  0  0  0  0
    8.1820   12.0430   25.1030 C   0  0  0  0  0  0  0  0  0  0  0  0
    9.0800   13.2160   24.7650 C   0  0  0  0  0  0  0  0  0  0  0  0
    8.8290   13.7540   23.3660 C   0  0  0  0  0  0  0  0  0  0  0  0
    7.9350   13.2990   22.6620 O   0  0  0  0  0  0  0  0  0  0  0  0
    9.6400   14.7520   22.9400 N   0  0  0  0  0  0  0  0  0  0  0  0
   10.6860   15.4020   23.7500 C   0  0  0  0  0  0  0  0  0  0  0  0
   12.0460   15.2600   23.0790 C   0  0  0  0  0  0  0  0  0  0  0  0
   11.9910   15.7470   21.6150 C   0  0  0  0  0  0  0  0  0  0  0  0
    9.5370   15.2540   21.5680 C   0  0  0  0  0  0  0  0  0  0  0  0
   10.8630   15.0420   20.8340 C   0  0  1  0  0  0  0  0  0  0  0  0
   10.7780   15.5540   19.4060 C   0  0  0  0  0  0  0  0  0  0  0  0
   10.4230   16.7170   19.1640 O   0  0  0  0  0  0  0  0  0  0  0  0
   11.0690   14.6710   18.4570 N   0  0  0  0  0  0  0  0  0  0  0  0
 19 17  1  0
 18 17  2  0
 16 17  1  6
 16 14  1  0
 14 13  1  0
 13 12  1  0
 12 11  1  0
 11  9  1  0
 10  9  2  0
  9  8  1  0
  8  7  1  0
  7  6  2  0
  6  5  1  0
  5  4  2  0
  4  3  1  0
  3  2  2  0
  7  2  1  0
  2  1  1  0
 15 11  1  0
 16 15  1  0
M  END
>  <smiles>  (204) 
NC(=O)[C@H]1CCCN(C(=O)Cc2ccccc2Cl)C1

>  <inchikey>  (204) 
BMLBKIFPNQZKDQ-NSHDSACASA-N

>  <alias>  (204) 
A5394b

$$$$
A5424b
     RDKit          3D

 18 19  0  0  0  0  0  0  0  0999 V2000
   10.1620   16.7290   19.1790 O   0  0  0  0  0  0  0  0  0  0  0  0
   10.6280   15.6130   19.4420 C   0  0  0  0  0  0  0  0  0  0  0  0
   11.1590   14.8200   18.5240 N   0  0  0  0  0  0  0  0  0  0  0  0
   10.5790   15.0520   20.8530 C   0  0  1  0  0  0  0  0  0  0  0  0
   11.8060   15.4860   21.6750 C   0  0  0  0  0  0  0  0  0  0  0  0
   11.7640   14.8940   23.0930 C   0  0  0  0  0  0  0  0  0  0  0  0
   10.4360   15.2230   23.7850 C   0  0  0  0  0  0  0  0  0  0  0  0
    9.3030   15.4490   21.6040 C   0  0  0  0  0  0  0  0  0  0  0  0
    9.2910   14.8440   22.9400 N   0  0  0  0  0  0  0  0  0  0  0  0
    8.2680   14.0370   23.3160 C   0  0  0  0  0  0  0  0  0  0  0  0
    7.3520   13.7530   22.5560 O   0  0  0  0  0  0  0  0  0  0  0  0
    8.3080   13.4710   24.7240 C   0  0  0  0  0  0  0  0  0  0  0  0
    8.4420   11.9780   24.6790 C   0  0  0  0  0  0  0  0  0  0  0  0
    7.6430   11.0440   25.2850 C   0  0  0  0  0  0  0  0  0  0  0  0
    7.9950    9.7160   24.9560 C   0  0  0  0  0  0  0  0  0  0  0  0
    9.6500   11.2040   23.7120 S   0  0  0  0  0  0  0  0  0  0  0  0
    9.0550    9.6290   24.0990 C   0  0  0  0  0  0  0  0  0  0  0  0
    9.6540    8.4090   23.4640 C   0  0  0  0  0  0  0  0  0  0  0  0
 18 17  1  0
 17 15  2  0
 15 14  1  0
 14 13  2  0
 13 12  1  0
 12 10  1  0
 11 10  2  0
 10  9  1  0
  9  7  1  0
  7  6  1  0
  6  5  1  0
  5  4  1  0
  4  2  1  6
  3  2  1  0
  2  1  2  0
  8  4  1  0
  9  8  1  0
 16 13  1  0
 17 16  1  0
M  END
>  <smiles>  (205) 
Cc1ccc(CC(=O)N2CCC[C@H](C(N)=O)C2)s1

>  <inchikey>  (205) 
VZOYCHBEALAQTG-JTQLQIEISA-N

>  <alias>  (205) 
A5424b

$$$$
A5425a
     RDKit          3D

 17 18  0  0  0  0  0  0  0  0999 V2000
    7.2560   13.3640   22.2880 O   0  0  0  0  0  0  0  0  0  0  0  0
    8.0930   13.7150   23.1030 C   0  0  0  0  0  0  0  0  0  0  0  0
    9.0210   14.6570   22.8160 N   0  0  0  0  0  0  0  0  0  0  0  0
   10.0360   15.1800   23.7480 C   0  0  0  0  0  0  0  0  0  0  0  0
   11.4480   15.0490   23.1930 C   0  0  0  0  0  0  0  0  0  0  0  0
   11.5480   15.6150   21.7700 C   0  0  0  0  0  0  0  0  0  0  0  0
    9.0650   15.2270   21.4680 C   0  0  0  0  0  0  0  0  0  0  0  0
   10.4570   14.9910   20.8830 C   0  0  1  0  0  0  0  0  0  0  0  0
   10.4870   15.5070   19.4560 C   0  0  0  0  0  0  0  0  0  0  0  0
   10.1830   16.6770   19.1900 O   0  0  0  0  0  0  0  0  0  0  0  0
   10.8260   14.6190   18.5350 N   0  0  0  0  0  0  0  0  0  0  0  0
    8.1260   13.1260   24.4990 C   0  0  0  0  0  0  0  0  0  0  0  0
    8.4420   11.6580   24.3970 C   0  0  0  0  0  0  0  0  0  0  0  0
    9.4770   11.1620   23.6680 C   0  0  0  0  0  0  0  0  0  0  0  0
    9.4890    9.4630   23.6570 S   0  0  0  0  0  0  0  0  0  0  0  0
    8.0990    9.3700   24.6640 C   0  0  0  0  0  0  0  0  0  0  0  0
    7.6580   10.6220   24.9810 C   0  0  0  0  0  0  0  0  0  0  0  0
 11  9  1  0
 10  9  2  0
  8  9  1  6
  8  6  1  0
  6  5  1  0
  5  4  1  0
  4  3  1  0
  3  2  1  0
  2  1  2  0
 12  2  1  0
 13 12  1  0
 13 17  1  0
 17 16  2  0
 16 15  1  0
 15 14  1  0
 14 13  2  0
  7  3  1  0
  8  7  1  0
M  END
>  <smiles>  (206) 
NC(=O)[C@H]1CCCN(C(=O)Cc2ccsc2)C1

>  <inchikey>  (206) 
ZECAGGNKWBQSNM-JTQLQIEISA-N

>  <alias>  (206) 
A5425a

$$$$
A5425b
     RDKit          3D

 17 18  0  0  0  0  0  0  0  0999 V2000
    7.5880   13.2760   22.5030 O   0  0  0  0  0  0  0  0  0  0  0  0
    8.4640   13.6750   23.2560 C   0  0  0  0  0  0  0  0  0  0  0  0
    9.3270   14.6630   22.9120 N   0  0  0  0  0  0  0  0  0  0  0  0
   10.3440   15.2920   23.7790 C   0  0  0  0  0  0  0  0  0  0  0  0
   11.7460   15.1470   23.1830 C   0  0  0  0  0  0  0  0  0  0  0  0
   11.7800   15.6580   21.7310 C   0  0  0  0  0  0  0  0  0  0  0  0
    9.3020   15.2020   21.5530 C   0  0  0  0  0  0  0  0  0  0  0  0
   10.6720   14.9830   20.9030 C   0  0  1  0  0  0  0  0  0  0  0  0
   10.6280   15.4850   19.4730 C   0  0  0  0  0  0  0  0  0  0  0  0
   10.2890   16.6550   19.2130 O   0  0  0  0  0  0  0  0  0  0  0  0
   10.9360   14.5900   18.5420 N   0  0  0  0  0  0  0  0  0  0  0  0
    8.6120   13.0900   24.6460 C   0  0  0  0  0  0  0  0  0  0  0  0
    8.8780   11.6180   24.4710 C   0  0  0  0  0  0  0  0  0  0  0  0
    9.8580   11.1230   23.6670 C   0  0  0  0  0  0  0  0  0  0  0  0
    9.8910    9.4230   23.6720 S   0  0  0  0  0  0  0  0  0  0  0  0
    8.5580    9.3270   24.7290 C   0  0  0  0  0  0  0  0  0  0  0  0
    8.1240   10.5840   25.0780 C   0  0  0  0  0  0  0  0  0  0  0  0
 11  9  1  0
 10  9  2  0
  8  9  1  6
  8  6  1  0
  6  5  1  0
  5  4  1  0
  4  3  1  0
  3  2  1  0
  2  1  2  0
 12  2  1  0
 13 12  1  0
 13 17  1  0
 17 16  2  0
 16 15  1  0
 15 14  1  0
 14 13  2  0
  7  3  1  0
  8  7  1  0
M  END
>  <smiles>  (207) 
NC(=O)[C@H]1CCCN(C(=O)Cc2ccsc2)C1

>  <inchikey>  (207) 
ZECAGGNKWBQSNM-JTQLQIEISA-N

>  <alias>  (207) 
A5425b

$$$$
A5427a
     RDKit          3D

 19 20  0  0  0  0  0  0  0  0999 V2000
    9.3930   10.8910   23.2830 Cl  0  0  0  0  0  0  0  0  0  0  0  0
    8.0900   11.1710   24.3950 C   0  0  0  0  0  0  0  0  0  0  0  0
    7.5820   10.0990   25.1060 C   0  0  0  0  0  0  0  0  0  0  0  0
    6.5780   10.3140   26.0350 C   0  0  0  0  0  0  0  0  0  0  0  0
    6.0980   11.5920   26.2550 C   0  0  0  0  0  0  0  0  0  0  0  0
    6.6210   12.6430   25.5240 C   0  0  0  0  0  0  0  0  0  0  0  0
    6.0170   14.2370   25.8390 Cl  0  0  0  0  0  0  0  0  0  0  0  0
    7.6120   12.4710   24.5520 C   0  0  0  0  0  0  0  0  0  0  0  0
    8.0660   13.6010   23.6540 C   0  0  0  0  0  0  0  0  0  0  0  0
    9.4510   14.1100   24.0120 C   0  0  0  0  0  0  0  0  0  0  0  0
    9.8760   14.0340   25.1590 O   0  0  0  0  0  0  0  0  0  0  0  0
   10.1840   14.6400   23.0070 N   0  0  0  0  0  0  0  0  0  0  0  0
   11.5670   15.1160   23.1620 C   0  0  0  0  0  0  0  0  0  0  0  0
   11.9150   15.6370   21.7690 C   0  0  0  0  0  0  0  0  0  0  0  0
    9.6960   14.8060   21.6340 C   0  0  0  0  0  0  0  0  0  0  0  0
   11.0000   14.8300   20.8370 C   0  0  1  0  0  0  0  0  0  0  0  0
   10.8180   15.4240   19.4500 C   0  0  0  0  0  0  0  0  0  0  0  0
   10.2750   16.5200   19.2910 O   0  0  0  0  0  0  0  0  0  0  0  0
   11.2350   14.6710   18.4430 N   0  0  0  0  0  0  0  0  0  0  0  0
 19 17  1  0
 18 17  2  0
 16 17  1  6
 16 14  1  0
 14 13  1  0
 13 12  1  0
 12 10  1  0
 11 10  2  0
 10  9  1  0
  9  8  1  0
  8  6  2  0
  7  6  1  0
  6  5  1  0
  5  4  2  0
  4  3  1  0
  3  2  2  0
  8  2  1  0
  2  1  1  0
 15 12  1  0
 16 15  1  0
M  END
>  <smiles>  (208) 
NC(=O)[C@H]1CCN(C(=O)Cc2c(Cl)cccc2Cl)C1

>  <inchikey>  (208) 
BZVULGRWTNSUAM-QMMMGPOBSA-N

>  <alias>  (208) 
A5427a

$$$$
A5594a
     RDKit          3D

 20 21  0  0  0  0  0  0  0  0999 V2000
   10.3770   16.5950   19.2990 O   0  0  0  0  0  0  0  0  0  0  0  0
   10.7650   15.4440   19.5300 C   0  0  0  0  0  0  0  0  0  0  0  0
   11.1210   14.5990   18.5740 N   0  0  0  0  0  0  0  0  0  0  0  0
   10.7330   14.8680   20.9360 C   0  0  1  0  0  0  0  0  0  0  0  0
   11.7930   15.4860   21.8660 C   0  0  0  0  0  0  0  0  0  0  0  0
   11.6750   14.8660   23.2640 C   0  0  0  0  0  0  0  0  0  0  0  0
   10.2490   15.0090   23.8080 C   0  0  0  0  0  0  0  0  0  0  0  0
    9.3260   15.0790   21.5090 C   0  0  0  0  0  0  0  0  0  0  0  0
    9.2480   14.5010   22.8540 N   0  0  0  0  0  0  0  0  0  0  0  0
    8.2710   13.6310   23.1730 C   0  0  0  0  0  0  0  0  0  0  0  0
    7.4160   13.2560   22.4090 O   0  0  0  0  0  0  0  0  0  0  0  0
    8.3470   13.2610   24.4910 O   0  0  0  0  0  0  0  0  0  0  0  0
    7.3950   12.3400   24.9410 C   0  0  0  0  0  0  0  0  0  0  0  0
    7.6090   10.9840   24.6680 C   0  0  0  0  0  0  0  0  0  0  0  0
    8.7330   10.5730   23.8720 C   0  0  0  0  0  0  0  0  0  0  0  0
    9.6300   10.2900   23.2300 N   0  0  0  0  0  0  0  0  0  0  0  0
    6.2990   12.6920   25.7100 C   0  0  0  0  0  0  0  0  0  0  0  0
    5.4460   11.7940   26.2260 N   0  0  0  0  0  0  0  0  0  0  0  0
    5.6710   10.5020   25.9660 C   0  0  0  0  0  0  0  0  0  0  0  0
    6.7160   10.0530   25.1930 C   0  0  0  0  0  0  0  0  0  0  0  0
 16 15  3  0
 15 14  1  0
 14 20  2  0
 20 19  1  0
 19 18  2  0
 18 17  1  0
 17 13  2  0
 14 13  1  0
 13 12  1  0
 12 10  1  0
 11 10  2  0
 10  9  1  0
  9  7  1  0
  7  6  1  0
  6  5  1  0
  5  4  1  0
  4  2  1  6
  3  2  1  0
  2  1  2  0
  8  4  1  0
  9  8  1  0
M  END
>  <smiles>  (209) 
N#Cc1ccncc1OC(=O)N1CCC[C@H](C(N)=O)C1

>  <inchikey>  (209) 
HIVMPDDOIHQVRV-JTQLQIEISA-N

>  <alias>  (209) 
A5594a

$$$$
